         272
 CSIRO Nanostructure Databank - Neutral Graphene Oxide Data Set
C        -11.01508         0.50036         0.14616
C        -10.01579         1.44888         0.78456
C         -8.61200         0.81671         0.69587
C         -7.52082         1.50707        -0.08464
C         -6.19953         0.80393        -0.30884
C         -4.94679         1.56368        -0.66531
C         -3.66550         0.77356        -0.32934
C         -2.35817         1.56882        -0.52667
C         -1.13419         0.90679        -1.14849
C          0.18157         1.66175        -1.05142
C          1.46823         0.84763        -0.99106
C          2.63744         1.41973        -0.24133
C          3.81260         0.73749        -0.11362
C          5.08686         1.43758         0.36405
C          6.40167         0.70830         0.07293
C          7.66504         1.44855        -0.27617
C          8.79850         0.60271        -0.74014
C         10.38619         1.63707         0.40697
C         11.07875         0.69801         1.30284
C        -10.10075         2.90095         0.20262
C         -8.79508         3.68469         0.25286
C         -7.58289         3.00145        -0.26607
C         -6.30930         3.78891        -0.52625
C         -4.98574         3.07480        -0.71010
C         -3.68121         3.90604        -0.57956
C         -2.39121         3.06995        -0.44273
C         -1.09303         3.84843        -0.49915
C          0.17501         3.04189        -0.44826
C          1.29692         3.59080         0.08778
C          2.55706         2.83171         0.21697
C          3.86351         3.57021         0.35234
C          5.03628         2.85939        -0.32852
C          6.35777         3.66291        -0.46596
C          7.68377         2.94640        -0.46890
C          9.05001         3.65824        -0.20594
C          9.90913         2.86137         0.77003
C         -8.76814         5.01752         0.49938
C         -7.56104         5.82568         0.42470
C         -6.24729         5.29928        -0.15862
C         -5.06835         5.63013         0.81688
C         -3.76557         4.94307         0.55458
C         -2.46144         5.65182         0.86823
C         -1.16576         5.12591         0.29746
C          0.06725         5.69989         0.94122
C          1.33347         4.95185         0.71733
C          2.59706         5.74432         0.50239
C          3.91077         5.04060         0.59419
C          5.17851         5.79615         0.45090
C          6.36731         5.17210        -0.27352
C          7.70032         5.80116         0.03536
C          8.88236         5.15101         0.07970
C         -7.59291         7.11542         0.83906
C         -6.33404         7.87394         1.05964
C         -5.06865         7.08486         1.26854
C         -3.76942         7.85664         1.24490
C         -2.46582         7.11045         1.22421
C         -1.21720         8.00830         1.17553
C          0.09715         7.20242         1.14682
C          1.32924         7.96917         0.79507
C          2.58358         7.22928         0.42847
C          3.83985         8.07735         0.62364
C          5.15315         7.30890         0.43036
C          6.33477         7.97931        -0.17663
C          7.29583         6.99095        -0.82482
C         -6.24636         9.26180         0.55213
C         -5.08041         9.86703         0.25259
C         -3.76884         9.29168         0.62154
C         -2.56715         9.74750        -0.03820
C         -1.27608         8.96728        -0.02066
C         -0.01291         9.81787        -0.11441
C          1.20301         9.35971         0.25542
C          2.48481        10.17728         0.05240
C          3.69424         9.27598        -0.36346
C          4.99796        10.03236        -0.53980
C          6.18808         9.40796        -0.57802
C        -10.93799        -0.82728         0.31688
C         -9.82968        -1.49350         1.12066
C         -8.51730        -0.66304         0.91128
C         -7.25117        -1.39572         0.54871
C         -6.02624        -0.62670         0.13540
C         -4.90104        -1.40679        -0.49670
C         -3.68832        -0.64741        -0.90422
C         -2.41496        -1.38770        -1.21381
C         -1.16234        -0.59214        -1.46283
C          0.15641        -1.31997        -1.83982
C          1.43285        -0.65176        -1.22457
C          2.50540        -1.36621        -0.35717
C          3.85147        -0.68256        -0.55898
C          5.12586        -1.46996        -0.54741
C          6.36609        -0.80847        -0.02089
C          7.66742        -1.54970        -0.12712
C          8.81901        -0.73617        -0.54891
C         10.41546        -1.70639         0.60953
C         11.10762        -0.66923         1.38360
C         -9.61641        -2.93555         0.72493
C         -8.55251        -3.70121         1.27292
C         -7.28170        -2.79677         0.03387
C         -6.03173        -3.59280         0.18167
C         -4.76518        -2.85495        -0.17057
C         -3.59686        -3.57924        -0.68948
C         -2.40068        -2.87430        -1.00391
C         -1.19237        -3.57508        -1.09837
C         -0.02879        -2.90196        -1.78032
C          1.36507        -3.61158         0.03607
C          2.55327        -2.87606        -0.51516
C          3.82723        -3.66738        -0.65618
C          5.21026        -3.00096        -0.80296
C          6.33897        -3.66412        -0.01006
C          7.71070        -3.05422        -0.17397
C          8.89696        -3.73882         0.47537
C          9.95213        -2.88534         1.11568
C         -8.33849        -5.16106         0.96421
C         -7.30032        -5.76357         0.33820
C         -6.15468        -5.01735        -0.24677
C         -4.96913        -5.69802        -0.86367
C         -3.63495        -5.00181        -0.79347
C         -2.41914        -5.69388        -0.80428
C         -1.17123        -4.97969        -0.72825
C         -0.01686        -5.69046        -0.28640
C          1.25802        -5.07065        -0.18577
C          2.46037        -5.79267        -0.07210
C          3.76416        -5.13524        -0.32792
C          5.00207        -5.85231         0.07775
C          6.24838        -5.09182         0.39775
C          7.48096        -5.89253         0.63628
C          8.68989        -5.11320         1.13692
C         -7.24134        -7.27827         0.25157
C         -5.79829        -7.87059         0.16814
C         -5.07345        -7.23907        -1.07338
C         -3.68095        -7.74020        -1.59260
C         -2.39509        -7.17778        -0.95962
C         -1.22266        -7.94480        -0.38785
C         -0.19602        -7.06453         0.34977
C          1.14085        -7.80349         0.58748
C          2.44544        -7.17941         0.27554
C          3.61459        -7.91515         0.49308
C          4.93841        -7.22072         0.70335
C          6.16950        -8.01289         0.18586
C          7.43372        -7.24318         0.57331
C         -5.98739        -9.38011         0.15146
C         -5.02666       -10.28937        -0.06244
C         -3.67729        -9.84208        -0.44919
C         -2.57053       -10.03903         0.30307
C         -1.28253        -9.37194         0.10128
C         -0.16834        -9.98767         0.57734
C          1.13720        -9.30927         0.71541
C          2.40514       -10.03684         0.60638
C          3.59866        -9.34477         0.66653
C          4.88325       -10.03330         0.85459
C          6.08019        -9.42591         0.72159
O          6.23636         7.82309         1.28540
O         -1.25679        -7.66080        -1.80566
O         -4.59475         4.58787         1.70798
O          1.97995         0.24921        -2.21457
O          4.78156         5.29561         1.75625
O         -0.79400        -6.79827         1.64663
H         -0.24888        -7.27521         2.31863
O          7.05826         3.33480        -1.72285
O          3.21558         2.98281         1.51150
O          6.13292        -8.14842        -1.24899
H          5.80850        -7.31181        -1.65174
O        -10.37354         1.50551         2.18793
H         -9.60176         1.84023         2.69301
O          0.56456        -3.04364         0.79231
O         -4.67412        -1.07652        -1.88956
O         -1.07408         5.12680        -1.16686
O         -3.62038        -9.18359        -1.67362
O         -5.10574        -7.49576         1.37504
H         -4.40578        -8.15436         1.56719
O         -6.21469        -1.03617         1.50552
O          4.62259        -0.84394        -1.77976
O          7.37018         1.10437         1.11780
O          2.99059        -3.36537        -1.80861
O         -3.71788         9.00246         2.08490
O          4.58468         2.66316        -1.68586
H          5.36726         2.68119        -2.28397
O          0.98687         7.68904         2.19169
O         -5.85667         7.51369         2.41549
O          1.14857        -8.41280         1.92498
O         -5.98196        -5.04035        -1.71584
O         10.05161        -1.38377        -0.72107
O         -2.35812         6.07553         2.25213
O          0.68667         4.95908         2.03038
O         -2.07226        -0.91979        -2.56881
O          5.01785         1.52632         1.78746
H          5.92884         1.48885         2.15529
O         -0.58190         1.63391        -2.28695
O         -8.21838         0.28014         1.98847
O          3.82077         8.56500         1.97468
H          4.74933         8.54475         2.30613
O          6.02332        -4.00177         1.37399
O         -5.11290        -3.24723         1.21947
O         -5.76749         0.97863        -1.68872
O          8.71200        -3.71431        -0.97467
O          0.64973        -3.57399        -2.53647
O          4.61085        -5.87338        -1.32181
O         -3.63510        -7.29993        -2.94373
H         -2.75026        -7.53889        -3.29954
O         -5.88632         6.03630        -1.29627
O          2.51985         6.45857        -0.79532
O          6.42147         6.00660        -1.54838
O         -2.16032         2.25972         0.76383
O         10.06662         1.20780        -0.91008
O          6.99890        -1.30380         1.19189
O         -7.98904         2.07829        -1.34063
O         -5.77451         3.52874        -1.84109
O         -7.90069        -7.84599         1.38164
H         -7.32397        -7.69272         2.16073
O          0.33333        -1.10381        -3.24655
H         -0.53774        -1.22037        -3.68550
O         -3.76405         0.47086         1.08907
H         -3.33647         1.20466         1.59531
O         -1.21078         8.82883         2.34080
H         -1.09850         8.25185         3.12499
O         -8.08815        -3.35968         2.50632
H         -8.54182        -2.53912         2.81954
O          2.21475        -1.07577         1.02724
H          1.44177        -1.62623         1.31368
O         -3.54584         4.66623        -1.78137
H         -4.42172         5.14378        -1.91657
O          5.09002        -7.04227         2.13193
H          4.99448        -7.91869         2.56082
O         -1.33677         8.11997        -1.20526
H         -1.21113         8.66872        -2.00755
O        -10.55452         2.85720        -1.15222
H         -9.77844         2.63694        -1.71948
O          5.61641        -3.16894        -2.16589
H          4.89191        -2.81794        -2.73291
O          3.39259         8.71509        -1.65954
H          3.52230         9.40562        -2.34137
O         -7.77990        -2.88324        -1.24292
H         -7.38243        -3.64706        -1.72373
O        -10.12490        -1.42812         2.52984
H        -10.22630        -0.46772         2.74763
O          9.72818         3.68501        -1.47722
H          9.05517         3.88502        -2.16463
O         -5.99621        -7.49673        -2.13849
H         -5.52575        -7.29990        -2.98176
O          2.79237        10.91842         1.22801
H          2.99237        10.26434         1.94038
O          8.50297        -4.89773         2.54429
H          7.61357        -4.49108         2.66127
H         11.63363        -1.06644         2.26899
H         11.59078         1.21197         2.13504
H         10.08818         3.25841         1.77897
H          9.80936         5.73753        -0.03042
H          8.06584         7.44773        -1.48720
H          7.10529         9.97333        -0.80756
H          4.93894        11.10624        -0.77858
H          2.30522        10.92099        -0.76976
H         -0.10594        10.82021        -0.56395
H         -2.71053        10.43258        -0.89167
H         -5.08136        10.84871        -0.24458
H         -7.19227         9.74254         0.26075
H         -8.52902         7.56464         1.20902
H         -9.69086         5.52652         0.82205
H        -10.87841         3.44700         0.79326
H        -11.83825         0.93946        -0.43699
H        -11.70774        -1.47956        -0.12338
H        -10.02399        -3.25482        -0.24652
H         -9.09921        -5.83149         1.40379
H         -7.79581        -7.60794        -0.66316
H         -6.98927        -9.72727         0.45192
H         -5.23694       -11.36379         0.06131
H         -2.65142       -10.69471         1.18327
H         -0.25096       -11.01493         0.96555
H          2.39084       -11.13601         0.57793
H          4.83871       -11.09353         1.14831
H          7.00873        -9.99563         0.88047
H          8.35197        -7.82327         0.76132
H          9.61651        -5.72857         1.01404
H         10.20534        -3.16518         2.14953
