         268
 CSIRO Nanostructure Databank - Neutral Graphene Oxide Data Set
C        -11.31786         0.69079         0.32074
C        -10.05276         1.53236         0.33582
C         -8.87603         0.77007        -0.24353
C         -7.59059         1.50883        -0.41543
C         -6.33463         0.73214        -0.12348
C         -5.06440         1.44036         0.22896
C         -3.70778         0.85016        -0.14416
C         -2.57070         1.32395         0.77792
C         -1.25337         0.65609         0.56258
C          0.02224         1.45222         0.60162
C          1.33225         0.67305         0.75961
C          2.51154         1.47988         0.23883
C          3.76953         0.71855        -0.05452
C          5.08908         1.41355         0.07100
C          6.25478         0.69406        -0.54800
C          7.56685         1.39717        -0.70766
C          8.82140         0.59914        -0.77927
C         10.10967         1.28295        -0.61469
C         11.36348         0.52937        -0.43520
C        -10.13505         2.96336        -0.14595
C         -8.90420         3.74589        -0.32698
C         -7.57477         3.01736        -0.37027
C         -6.29636         3.71277         0.03380
C         -5.03231         2.95013         0.28932
C         -3.88228         3.59501         1.05178
C         -2.64018         2.72846         1.42887
C         -1.29285         3.56344         1.41419
C          0.01447         2.90771         0.97622
C          1.38002         3.52708         1.42615
C          2.53505         2.96867         0.56073
C          3.86207         3.66922         0.52446
C          5.13457         2.87805         0.33128
C          6.39900         3.61689        -0.00261
C          7.62396         2.86879        -0.41426
C          8.94123         3.45583         0.05858
C         10.14605         2.64217        -0.38119
C         -8.90821         5.24261         0.00488
C         -7.55597         5.88953        -0.24570
C         -6.39911         5.17238         0.37437
C         -5.12811         5.89498         0.70339
C         -3.87295         5.10431         1.12178
C         -2.58145         5.92626         1.38559
C         -1.28226         5.07506         1.50747
C          0.07108         5.83224         1.46218
C          1.37804         5.07748         1.45335
C          2.72833         5.80333         1.32549
C          4.00740         5.05160         1.10527
C          5.33417         5.77639         0.90721
C          6.57291         5.01490         0.52299
C          7.80678         5.68386        -0.00782
C          8.92422         4.94915        -0.23021
C         -7.40593         7.13470        -0.74399
C         -6.10989         7.85892        -0.67760
C         -4.97830         7.27579         0.12987
C         -3.59314         7.70561        -0.25265
C         -2.40385         7.01336         0.32255
C         -1.13892         7.83238         0.37323
C          0.08647         7.27946         1.03234
C          1.41840         7.99690         0.86839
C          2.73369         7.29053         1.05849
C          3.97023         7.90507         0.50093
C          5.28732         7.26442         0.67762
C          6.51552         7.92816         0.06077
C          7.77389         7.16349        -0.34130
C         -5.75323         8.82591        -1.74677
C         -4.53718         9.39212        -1.82218
C         -3.47184         9.14586        -0.77004
C         -2.07220         9.43274        -1.26256
C         -0.99340         8.87789        -0.68134
C          0.42667         9.15226        -1.12243
C          1.33869         9.32769         0.11308
C          2.68292         9.85041        -0.29127
C          3.89333         9.18625        -0.10974
C          5.08847         9.79396        -0.68704
C          6.29363         9.18945        -0.67598
C        -11.32830        -0.64819         0.17460
C        -10.11553        -1.41177        -0.32718
C         -8.84565        -0.69920         0.09979
C         -7.55689        -1.44244         0.13361
C         -6.40559        -0.73029        -0.59376
C         -5.04806        -1.42543        -0.55333
C         -3.77079        -0.66941        -0.36490
C         -2.47756        -1.43812        -0.28736
C         -1.20907        -0.69740        -0.09283
C          0.06074        -1.49209         0.05874
C          1.32261        -0.73877         0.17200
C          2.58918        -1.54305         0.30573
C          3.84232        -0.78701         0.09654
C          5.16166        -1.45037         0.34181
C          6.23683        -0.80864        -0.47663
C          7.48642        -1.55230        -0.79531
C          8.68845        -0.73491        -1.07242
C         10.54362        -1.82846        -0.46477
C         11.56235        -0.80461        -0.22793
C        -10.06734        -2.91976        -0.20301
C         -8.87762        -3.63250        -0.22969
C         -7.57695        -2.96332         0.18180
C         -6.34951        -3.65410        -0.36510
C         -5.05628        -2.93385        -0.51086
C         -3.81119        -3.64965        -0.05586
C         -2.51805        -2.90759         0.03144
C         -1.20622        -3.66076         0.06137
C         -0.07529        -2.87324         0.70631
C          1.25420        -3.62942         0.97912
C          2.57425        -2.90790         0.91971
C          3.89761        -3.66161         0.96113
C          5.17658        -2.92643         0.57859
C          6.37845        -3.72041         0.12739
C          7.62229        -3.01784        -0.36342
C          8.88724        -3.70573         0.21325
C         10.22303        -2.94723         0.22935
C         -8.80791        -5.04127        -0.45351
C         -7.61134        -5.79960        -0.26764
C         -6.41975        -5.02266         0.27364
C         -5.11713        -5.80525         0.32512
C         -3.81512        -5.16936        -0.21811
C         -2.55462        -5.83095         0.37137
C         -1.23707        -5.13300         0.23047
C         -0.04763        -5.88096         0.78788
C          1.23079        -5.14412         1.07451
C          2.55473        -5.92528         1.06646
C          3.88454        -5.16433         1.05230
C          5.16822        -5.91899         0.70368
C          6.46703        -5.19010         0.48261
C          7.59974        -5.87229        -0.24420
C          8.94811        -5.14846        -0.34879
C         -7.54919        -7.17066        -0.45108
C         -6.44249        -8.05981         0.10273
C         -5.13502        -7.30196         0.30572
C         -3.81636        -7.93326        -0.08063
C         -2.56929        -7.32398         0.50977
C         -1.28735        -8.18637         0.61501
C         -0.02427        -7.32714         0.33804
C          1.26846        -8.04722         0.19538
C          2.53403        -7.38466         0.68427
C          3.82598        -8.09333         0.35189
C          4.99223        -7.22471        -0.01972
C          6.13704        -7.82151        -0.77019
C          7.44833        -7.11746        -0.74928
C         -6.24780        -9.36918        -0.64072
C         -5.06707        -9.95436        -0.91239
C         -3.75637        -9.27843        -0.71177
C         -2.45551       -10.00639        -0.68925
C         -1.30653        -9.46008        -0.22381
C         -0.03664       -10.29708        -0.12597
C          1.28007        -9.52380        -0.03810
C          2.45081       -10.16049        -0.27183
C          3.77866        -9.49880        -0.14736
C          4.95295       -10.00569        -0.90967
C          6.05727        -9.26504        -1.12312
O         -2.86514         6.67908        -1.01633
O          0.59306        -7.41046        -0.97519
O         -4.29282        -0.94163        -1.71891
O          3.24002        -1.53246        -1.00898
O          6.41520        -1.40678        -1.78613
O         -8.15724        -0.92124         1.35497
O         -2.72086        -6.46430         1.65866
O          3.53482         5.31617         2.45089
O          2.90406         1.17745        -1.12228
O          6.85328         3.62106        -1.39483
O         -2.02913         0.42835         1.78174
O         -6.16835         5.69228         1.71755
O         -0.82194         8.17247         1.75401
O         -5.25791         3.55271        -1.01352
O          0.81400        -1.12572        -1.13759
O          0.32524        -5.58274         2.14189
O         -5.85806         0.81800         1.26590
O          2.51595        -6.96810         2.07864
O          2.12802         8.11454         2.13154
O          2.92552         3.74006        -0.60552
O          0.79514         5.57897         2.69744
O          6.28842         5.29995         1.91356
O         -1.23294         4.24085         2.69740
O          6.66900         1.16039        -1.85076
O          6.16587        -5.79074         1.76476
O         -8.39567         1.07771        -1.55884
O          0.03009         2.50225        -0.41808
O         -4.26862         4.30132         2.26713
O         -3.34032        -3.15483         1.22308
O          1.85911        -3.01037         2.17093
O          6.78864        -3.76925        -1.29244
O         -5.07063        -6.57672         1.55650
O         -5.79532         8.32610         0.70574
O          9.73914        -1.49266        -1.57549
O         -6.76599        -4.65660         1.66356
O         -5.78556        -3.49283        -1.66689
O          5.08455        -7.02635        -1.47030
O          6.25896         8.02498         1.48449
O         -0.96423        -4.52032        -1.08445
O         -8.14096         3.56696        -1.59364
O         -3.67888        -8.04086        -1.53729
O          5.34661         1.91087         1.42200
O         -7.41372        -3.32074         1.61521
O          4.05579        -4.34700         2.23431
O          5.52907        -1.94227         1.64114
O          4.14104        -9.18298         1.26249
O         -1.70147        -0.95804        -1.43793
O         -1.16079        -8.64436         1.92562
O         -6.82037        -0.80033        -1.96606
H         -6.02828        -0.70655        -2.54050
O         -3.82354        -5.42521        -1.63462
H         -2.94064        -5.20351        -2.00489
O         -3.36005         1.46115        -1.40716
H         -3.48122         0.79706        -2.12397
O          8.57879        -3.84399         1.62117
H          9.11888        -4.59166         1.96223
O          1.63054         3.07976         2.76844
H          1.25263         3.75714         3.38096
O         -2.77849         6.60433         2.62585
H         -2.82155         5.93010         3.33724
O         -0.63578        -2.55383         1.99949
H          0.09674        -2.49894         2.65691
O          8.90543         3.28962         1.50978
H          9.68107         3.74628         1.89693
O         -9.71285         1.70127         1.75811
H        -10.49138         2.07565         2.22257
O          9.92630        -5.84130         0.43519
H          9.86485        -6.79932         0.24228
O          0.02667       -11.24501        -1.19214
H          0.06822       -10.75265        -2.03760
O          1.53669         0.41828         2.16510
H          1.56656         1.27826         2.65990
O         -2.84316         2.38261         2.80223
H         -3.04169         3.20536         3.30268
O          0.71429        10.31189         0.95990
H          1.01048        10.14447         1.88083
O         -6.95095        -8.42612         1.41656
H         -6.63623        -7.73294         2.04461
O        -10.13425        -1.22309        -1.78245
H        -10.98954        -1.55427        -2.12736
O          7.89618         7.31656        -1.76244
H          8.52731         6.65016        -2.10355
O          0.92495         8.00859        -1.83204
H          0.40204         7.89127        -2.65206
O         -9.22982         5.43404         1.39041
H         -8.40586         5.61253         1.89327
O         -3.71417        10.04028         0.33700
H         -4.58157         9.78629         0.73628
H         12.55480        -1.12842         0.12393
H         12.23685         1.17781        -0.25135
H         11.12985         3.10257        -0.18716
H          9.83707         5.43670        -0.61089
H          8.65607         7.66447         0.15887
H          7.14105         9.62354        -1.22476
H          4.95602        10.74668        -1.22033
H          2.69705        10.84913        -0.75384
H          0.46447        10.06280        -1.77841
H         -1.94399        10.18486        -2.05750
H         -4.31673        10.10888        -2.62788
H         -6.51925         9.04722        -2.50538
H         -8.27137         7.67183        -1.16339
H         -9.69920         5.74746        -0.60969
H        -11.01803         3.53466         0.19028
H        -12.25350         1.20467         0.59844
H        -12.28259        -1.19244         0.26787
H        -11.00742        -3.46300        -0.40031
H         -9.72394        -5.57179        -0.75795
H         -8.45872        -7.68809        -0.79902
H         -7.17392        -9.92649        -0.85237
H         -5.05737       -10.95459        -1.37371
H         -2.42473       -11.01239        -1.13933
H         -0.12102       -10.89109         0.82499
H          2.43508       -11.23098        -0.53097
H          4.92266       -11.05205        -1.25026
H          6.92346        -9.70763        -1.63861
H          8.29695        -7.61841        -1.24424
H          9.27198        -5.12960        -1.42836
H         10.86513        -3.22524         1.07895
