         430
 CSIRO Nanostructure Databank - Neutral Graphene Oxide Data Set
C         27.94709        27.46557         0.84733
C         27.93051        28.88255         0.78495
C         26.70189        29.60233         0.80996
C         27.90750        31.71800         0.63901
C         26.69277        30.97252         0.73642
C         27.90189        33.15100         0.52359
C         26.68724        33.88671         0.45731
C         27.89947        35.98777         0.19481
C         26.68550        35.25359         0.30833
C         27.88339        37.42149        -0.03819
C         26.67670        38.15375        -0.09683
C         27.87287        40.23906        -0.52726
C         26.67277        39.51857        -0.33069
C         27.85576        41.66772        -0.79872
C         26.67793        42.42153        -0.82721
C         27.85207        44.56109        -0.60933
C         26.67062        43.82502        -0.72959
C         27.88979        45.90254        -0.11909
C         30.38487        27.45861         0.71939
C         29.13923        26.77730         0.81197
C         30.39498        28.87653         0.67366
C         29.15967        29.59479         0.69858
C         30.38526        31.74878         0.59318
C         29.14575        31.02284         0.63347
C         30.37037        33.15417         0.56682
C         29.13667        33.86333         0.47369
C         30.36969        36.00052         0.11787
C         29.12377        35.28944         0.28880
C         30.34903        37.39806        -0.16144
C         29.10849        38.12118        -0.22467
C         30.36502        40.23091        -0.58015
C         29.10620        39.52941        -0.46872
C         30.39862        41.65284        -0.74730
C         29.12643        42.34910        -1.02088
C         30.38039        44.58834        -0.57958
C         29.12554        43.91941        -0.92614
C         30.34750        45.88452        -0.12260
C         29.08603        46.53607         0.10705
C         32.85584        24.62076         0.63365
C         31.66453        25.31749         0.69142
C         32.86687        27.44186         0.57260
C         31.63479        26.73131         0.66627
C         32.87146        28.87257         0.52748
C         31.63737        29.59881         0.58535
C         32.87276        31.72671         0.42308
C         31.63423        31.01610         0.55641
C         32.89702        33.15192         0.39959
C         31.65133        33.92102         0.78846
C         32.81549        36.00920         0.01004
C         31.60877        35.33102         0.25194
C         32.79187        37.36617        -0.35001
C         31.57565        38.08152        -0.37124
C         32.81894        40.23200        -0.49949
C         31.57948        39.51833        -0.52729
C         32.82560        41.65572        -0.48622
C         31.60176        42.36201        -0.66681
C         32.88813        44.51680        -0.33145
C         31.66046        43.85800        -0.92212
C         32.88508        45.90037        -0.11708
C         31.61199        46.64588         0.20580
C         32.83903        48.70533        -0.42520
C         31.66009        48.04736        -0.34921
C         35.37592        23.11612         0.50899
C         35.34587        24.57862         0.52551
C         34.09763        25.29517         0.55513
C         35.34243        27.42899         0.41870
C         34.10369        26.72190         0.51831
C         35.34603        28.85120         0.37096
C         34.10752        29.57327         0.41696
C         35.33466        31.70647         0.23435
C         34.09965        30.99963         0.34033
C         35.33097        33.13211         0.15149
C         34.10543        33.84040         0.23458
C         35.34496        36.02110        -0.21659
C         34.12507        35.34947         0.38892
C         35.31411        37.34606        -0.58403
C         34.02275        38.06381        -0.86230
C         35.25802        40.20622        -0.27727
C         34.05240        39.52660        -0.48895
C         35.24658        41.61262        -0.04648
C         34.06768        42.34141        -0.25971
C         35.31914        44.47871         0.05663
C         34.08632        43.78622        -0.17857
C         35.34005        45.90839         0.02678
C         34.11183        46.62063        -0.04599
C         35.33667        48.75354        -0.14958
C         34.10950        48.05234        -0.15222
C         35.38462        50.18301        -0.26279
C         37.75765        23.16887        -0.19323
C         36.48625        22.43363         0.17185
C         37.82727        24.48346         0.62917
C         36.54991        25.27552         0.46460
C         37.81626        27.38677         0.21796
C         36.58074        26.70175         0.37925
C         37.83582        28.81405         0.17381
C         36.59013        29.55975         0.29597
C         37.81143        31.73176         0.28259
C         36.56178        30.97163         0.27480
C         37.78138        33.15834        -0.04631
C         36.57887        33.85141        -0.05252
C         37.80783        35.98432        -0.45043
C         36.57783        35.28116        -0.27000
C         37.82746        37.39613        -0.60361
C         36.55765        38.10987        -0.98151
C         37.70668        40.22101        -0.30940
C         36.53803        39.52949        -0.44091
C         37.78571        41.49053         0.50787
C         36.43337        42.29649         0.60406
C         37.74974        44.46505         0.39580
C         36.52548        43.76384         0.25877
C         37.78591        45.90447         0.31525
C         36.57785        46.61758         0.11893
C         37.81902        48.74239        -0.05420
C         36.58388        48.04722        -0.01465
C         37.83545        50.17965        -0.21207
C         36.57074        50.85874        -0.27846
C         40.30256        20.32205         0.41526
C         39.08095        21.03751         0.31169
C         40.30211        23.13035        -0.30978
C         39.03211        22.37294        -0.01460
C         40.36136        24.48784         0.42179
C         39.07645        25.26791         0.31652
C         40.31761        27.35092        -0.12349
C         39.06536        26.63563         0.12970
C         40.29768        28.77945        -0.26012
C         39.06139        29.48439        -0.05877
C         40.25669        31.66888        -0.52961
C         39.10679        30.94306         0.06840
C         40.32112        33.13105        -0.35018
C         39.01591        33.82489        -0.59558
C         40.26516        35.99061        -0.34516
C         39.05828        35.30364        -0.38177
C         40.27959        37.41144        -0.42270
C         39.03699        38.09043        -0.58093
C         40.28175        40.31531        -0.48280
C         38.99641        39.56872        -0.65751
C         40.24052        41.72634        -0.04034
C         39.00781        42.35024         0.21416
C         40.22155        44.45020         0.90456
C         38.97195        43.73915         0.47161
C         40.26273        45.91975         0.54670
C         39.03681        46.61062         0.35303
C         40.29549        48.71014         0.08399
C         39.04932        48.02392         0.12428
C         40.35481        50.14373        -0.40005
C         39.04966        50.88821        -0.25635
C         40.25495        52.99859         0.03534
C         39.09326        52.31562        -0.21678
C         42.79083        20.29971         0.45405
C         41.54249        20.97327         0.28069
C         42.77728        23.07366        -0.02291
C         41.57016        22.37439         0.01216
C         42.75574        24.52212        -0.22645
C         41.59173        25.22738        -0.06410
C         42.77904        27.36646        -0.43229
C         41.54068        26.66428        -0.22717
C         42.76807        28.79608        -0.50797
C         41.52284        29.46989        -0.46545
C         42.78771        31.67154        -0.69028
C         41.52874        30.91440        -0.73026
C         42.77042        33.08777        -0.59098
C         41.51337        33.79549        -0.40215
C         42.78255        35.97182        -0.54646
C         41.55381        35.26178        -0.03864
C         42.76395        37.41743        -0.54522
C         41.53426        38.12242        -0.41500
C         42.75157        40.24832        -0.26495
C         41.55316        39.55571        -0.36328
C         42.75134        41.75620        -0.41018
C         41.48238        42.43697         0.07768
C         42.75893        44.43326         0.91528
C         41.49187        43.73571         0.52407
C         42.75855        45.91529         0.64449
C         41.49376        46.60829         0.49728
C         42.80212        48.73994         0.02072
C         41.49247        48.02299         0.28397
C         42.74967        50.21561         0.35879
C         41.54217        50.90038         0.15576
C         42.65270        53.01286         0.67674
C         41.49250        52.30748         0.29131
C         43.98148        20.99025         0.39269
C         45.25232        23.15082         0.17051
C         44.01978        22.39702         0.16934
C         45.27101        24.52476        -0.18395
C         44.01762        25.17930        -0.71464
C         45.22756        27.38239        -0.59384
C         44.00545        26.67474        -0.52355
C         45.22828        28.81306        -0.68569
C         43.99558        29.51649        -0.66122
C         45.23295        31.67652        -0.79784
C         44.00232        30.95699        -0.71797
C         45.21215        33.10199        -0.87107
C         43.97553        33.82069        -0.74170
C         45.12100        36.02404        -1.38139
C         43.94488        35.26651        -0.79460
C         45.23007        37.45015        -0.85295
C         43.99771        38.13214        -0.60491
C         45.23308        40.21961        -0.23561
C         44.00258        39.54189        -0.34814
C         45.23932        41.58855         0.37870
C         44.00066        42.40794         0.12184
C         45.25087        44.44850         0.65453
C         44.00904        43.72763         0.45705
C         45.21445        45.82620         0.86045
C         43.97820        46.58016         0.70818
C         45.15989        48.73940         0.83470
C         44.01607        48.03576         0.59734
C         45.22069        50.24158         0.95819
C         43.90738        50.93588         0.70554
C         43.84255        52.32838         0.88692
C         47.66149        23.24107         0.55507
C         46.48517        22.53697         0.54809
C         47.70414        24.62212         0.18932
C         46.47002        25.26463        -0.17342
C         47.68862        27.39707        -0.57246
C         46.47422        26.67959        -0.47828
C         47.67557        28.79352        -0.87474
C         46.46695        29.51494        -0.84398
C         47.67380        31.68845        -0.98576
C         46.47233        30.96845        -0.90496
C         47.66873        33.11099        -0.97962
C         46.43921        33.80396        -1.01859
C         47.74041        35.98410        -1.13927
C         46.43534        35.24684        -1.31840
C         47.72172        37.44870        -0.92890
C         46.44798        38.14517        -0.81825
C         47.68680        40.28070        -0.42935
C         46.46107        39.55715        -0.48210
C         47.71791        41.68029        -0.14253
C         46.51230        42.36413         0.18428
C         47.73510        44.46105         0.48302
C         46.50150        43.74433         0.45158
C         47.75026        45.85957         0.75694
C         46.48984        46.52997         1.07879
C         47.67263        48.75277         0.59135
C         46.46715        48.07408         1.05855
C         47.52416        50.07032         0.01863
C         46.36640        50.77221         0.11884
C         50.15903        24.76664         0.62134
C         48.92112        25.33957         0.13989
C         50.16328        27.37118        -0.42282
C         48.94598        26.70732        -0.32303
C         50.22722        28.77271        -0.86979
C         48.94758        29.49293        -1.18534
C         50.17686        31.69814        -0.70746
C         48.97487        31.01713        -1.36183
C         50.13494        33.06609        -0.54443
C         48.92457        33.82938        -0.81552
C         50.17000        35.96451        -0.54215
C         48.94441        35.22134        -0.76029
C         50.17676        37.39406        -0.66893
C         48.92526        38.11097        -0.80401
C         50.22992        40.26486        -0.56322
C         48.93157        39.60948        -0.95559
C         50.24326        41.77675        -0.60128
C         48.95585        42.41283        -0.11262
C         50.20526        44.44588         0.73189
C         48.95413        43.75445         0.25574
C         50.20617        45.94354         0.54869
C         48.95133        46.62094         0.68064
C         50.14498        48.75199         0.39284
C         48.91171        48.05860         0.58457
C         51.35428        25.35873         0.40248
C         52.68752        27.40768        -0.23241
C         51.44373        26.57802        -0.47207
C         52.65871        28.82180        -0.26208
C         51.44529        29.55559        -0.53851
C         52.62020        31.68340        -0.15218
C         51.40289        30.94692        -0.45250
C         52.60575        33.08353        -0.04758
C         51.29008        33.80450         0.09608
C         52.58734        35.96936        -0.16495
C         51.35779        35.27185        -0.25871
C         52.61806        37.38642        -0.35509
C         51.40018        38.10082        -0.57414
C         52.69005        40.33009        -0.83477
C         51.40021        39.56181        -0.59263
C         52.70750        41.67971        -0.12606
C         51.49405        42.36516         0.01882
C         52.66205        44.46963         0.46940
C         51.48829        43.76825         0.34156
C         52.72287        45.95820         0.23049
C         51.39416        46.65918         0.42845
C         51.34229        48.07794         0.32937
C         55.09925        27.42920         0.10901
C         53.91339        26.73510        -0.07786
C         55.09409        28.83993         0.15004
C         53.87089        29.54517        -0.04107
C         55.07125        31.68030         0.21563
C         53.85967        30.97310        -0.00888
C         55.05428        33.11353         0.24093
C         53.81846        33.81070         0.10502
C         55.02253        35.96098         0.23339
C         53.81224        35.25097         0.07935
C         55.03573        37.40040         0.12613
C         53.87108        38.08080        -0.25554
C         55.24403        40.24834        -0.26378
C         53.95950        39.51464        -0.59631
C         55.19483        41.71920        -0.03711
C         53.93617        42.33405         0.15133
C         55.17421        44.51293         0.59696
C         53.91440        43.70974         0.76443
C         55.09065        45.91143         0.95220
C         53.91464        46.58545         0.91120
C         56.29862        29.57499         0.37028
C         56.28429        30.94365         0.40218
C         56.25278        33.86502         0.40778
C         56.23679        35.23606         0.41425
C         56.21930        38.13869         0.51040
C         56.29759        39.48757         0.41756
C         56.37408        42.46992         0.04193
C         56.35576        43.86317         0.30345
O         49.73123        28.87388        -2.28000
O         46.57805        47.33462         2.31376
O         38.10031        40.95332         1.78334
O         40.61540        31.25333        -1.88827
O         29.16437        43.20621        -2.20863
O         47.26335        35.57816        -2.48788
O         42.88953        48.64106        -1.41020
O         38.74496        31.42199         1.40025
O         54.97016        39.79386        -1.63858
O         39.66745        40.14998        -1.83520
O         45.57207        50.54297         2.34783
H         46.28503        49.92521         2.61784
O         44.05128        24.96399        -2.17459
H         43.21168        25.31637        -2.53995
O         53.83812        43.46246         2.24131
H         52.90671        43.22519         2.44642
O         31.61414        46.78102         1.67042
H         32.41235        47.29555         1.91633
O         40.61735        50.03691        -1.84038
H         41.48557        49.52434        -1.91138
O         42.78861        41.99256        -1.85881
H         42.01228        41.54149        -2.25651
O         31.77838        34.09023         2.26117
H         31.74674        33.19436         2.66120
O         53.01656        46.06846        -1.21027
H         52.24258        45.71701        -1.70018
O         36.09065        42.33726         2.01857
H         36.77526        41.72618         2.43863
O         51.53844        26.09840        -1.86475
H         51.24519        26.83280        -2.44704
O         50.32213        42.14027        -2.03212
H         51.16309        41.73164        -2.37212
O         33.87542        38.03461        -2.32806
H         34.74575        38.32745        -2.70185
O         44.78452        36.17407        -2.79166
H         45.64199        36.24777        -3.27423
O         48.85254        39.83828        -2.41512
H         49.16545        40.76606        -2.57458
O         42.84039        44.29387         2.38474
H         41.93756        44.50875         2.73605
O         34.24874        35.57161         1.83297
H         33.44605        35.17152         2.25038
O         41.65619        35.28765         1.43022
H         42.50579        34.86531         1.67739
O         37.88226        24.06123         2.02134
H         37.89550        24.86342         2.58286
O         36.57092        38.22834        -2.45522
H         36.88287        37.37290        -2.82085
O         40.57492        24.18159         1.82849
H         40.63752        25.02819         2.31679
O         37.64719        23.56589        -1.58358
H         37.64836        22.75842        -2.13684
O         50.99800        33.78991         1.54912
H         51.04482        32.85571         1.84504
O         40.33973        23.43973        -1.73501
H         40.43397        22.59532        -2.22250
O         52.64457        40.65058        -2.26436
H         53.57922        40.59107        -2.58561
O         49.10678        31.28572        -2.78714
H         49.58635        30.51484        -3.17324
O         50.17365        44.23713         2.20012
H         49.37762        44.70047         2.54129
O         40.13775        44.40423         2.39443
H         39.79040        43.51760         2.64090
O         45.17841        41.30997         1.83902
H         45.02881        42.16824         2.29366
O         31.82409        44.00191        -2.37341
H         30.98160        43.67368        -2.77372
O         38.83870        33.68310        -2.06972
H         39.34312        32.89164        -2.36877
H         26.99495        26.92064         0.91949
H         25.75781        29.04368         0.88384
H         25.72808        31.49574         0.75486
H         25.72304        33.36531         0.51293
H         25.71976        35.77203         0.25188
H         25.71228        37.64993         0.04833
H         25.70684        40.03928        -0.36501
H         25.70603        41.91180        -0.77659
H         25.70724        44.33714        -0.59128
H         26.94089        46.41550         0.09481
H         29.11299        25.68100         0.85673
H         29.09106        47.55976         0.50606
H         32.82115        23.52409         0.65432
H         30.73081        24.74447         0.75554
H         32.84331        49.75247        -0.75937
H         30.72132        48.56582        -0.59263
H         34.45169        22.55975         0.71847
H         34.44928        50.75356        -0.33505
H         36.43587        21.33949         0.06774
H         36.54596        51.95160        -0.37763
H         40.27630        19.24795         0.64674
H         38.15212        20.48017         0.50251
H         40.24280        54.09682         0.09797
H         38.16437        52.89385        -0.31803
H         42.79086        19.21789         0.65126
H         42.60896        54.10512         0.79578
H         44.91800        20.43200         0.52637
H         44.74682        52.87476         1.18942
H         48.58778        22.72046         0.83135
H         46.50254        21.47814         0.83830
H         48.37433        50.50345        -0.52922
H         46.28871        51.77465        -0.32769
H         50.12230        23.84266         1.21566
H         50.14100        49.84861         0.32848
H         52.27083        24.90860         0.80920
H         52.27607        48.64064         0.19233
H         56.04774        26.88696         0.22964
H         53.93570        25.63768        -0.11876
H         56.00861        46.42153         1.28522
H         53.86640        47.63837         1.22456
H         57.23916        29.02462         0.51564
H         57.22724        31.47694         0.57808
H         57.21606        33.35115         0.51743
H         57.18891        35.77195         0.51583
H         57.03904        37.60020         1.00412
H         57.14285        40.02913         0.86515
H         57.33857        41.97944        -0.15032
H         57.29750        44.42893         0.25209
