         280
 CSIRO Nanostructure Databank - Neutral Graphene Oxide Data Set
C         30.33373        31.82385         1.06554
C         30.39403        33.06205         0.86755
C         30.43036        36.09371         0.01281
C         30.33488        37.32393        -0.19662
C         30.35651        40.39684        -0.48384
C         30.39585        41.61777        -0.25473
C         32.70094        28.96921         1.00000
C         31.59612        29.54996         1.09836
C         32.69831        31.65744         0.70876
C         31.44736        30.95704         0.98363
C         32.70156        33.05966         0.46689
C         31.51678        33.85172         0.51191
C         32.77089        35.88952        -0.21789
C         31.53456        35.22152         0.15839
C         32.74552        37.30064        -0.73197
C         31.42247        38.05645        -0.86493
C         32.74982        40.30987        -0.88429
C         31.43153        39.54089        -0.98155
C         32.73334        41.77223        -0.58199
C         31.56776        42.44561        -0.18672
C         32.84448        44.48786        -0.06448
C         31.77534        43.85092        -0.00704
C         35.47452        27.41992         1.09734
C         35.24044        28.82808         0.91221
C         34.00909        29.50136         0.85923
C         35.20767        31.62363         0.67603
C         33.96708        30.92994         0.69949
C         35.19628        33.13645         0.64926
C         33.96451        33.67498        -0.10351
C         35.25430        35.87228        -0.66651
C         33.95791        35.19034        -0.22998
C         35.19410        37.38934        -0.55810
C         34.02544        38.06816        -0.66683
C         35.29215        40.26374        -0.87379
C         34.00835        39.58316        -0.41658
C         35.28951        41.75436        -1.26694
C         33.96751        42.50484        -0.97861
C         35.34487        44.77074        -0.86384
C         34.02579        44.02994        -0.80427
C         35.43252        45.98223         0.05593
C         37.81557        27.38931         1.62829
C         36.49497        26.74219         1.26194
C         37.76435        28.75432         0.85420
C         36.46246        29.54844         0.95916
C         37.69338        31.77159         1.21512
C         36.42876        30.96360         0.89792
C         37.69619        33.18096         0.73583
C         36.50730        33.74334         0.02311
C         37.75670        35.98794        -0.12085
C         36.43727        35.30484         0.16144
C         37.75496        37.35722        -0.45212
C         36.46940        38.15436        -0.24355
C         37.75524        40.28465        -1.06820
C         36.44902        39.55527        -0.83417
C         37.64199        41.59453        -0.19443
C         36.49343        42.50295        -0.64316
C         37.74607        44.53787         0.05992
C         36.53038        43.86140        -0.44001
C         37.82859        45.85667         0.51233
C         36.52440        46.45172         0.41676
C         40.13569        24.52015         0.66746
C         39.22749        25.26512         1.07849
C         40.19918        27.36316         0.76307
C         39.06941        26.68521         1.19973
C         40.27312        28.81835         0.70414
C         39.03350        29.57541         1.15523
C         40.23476        31.71273         0.58065
C         38.92899        30.98191         0.54167
C         40.17649        33.19087         0.30740
C         38.93344        33.97915         0.94497
C         40.19110        35.99151         0.11532
C         38.95096        35.34042         0.26522
C         40.21542        37.29993        -0.41236
C         38.99705        38.01761        -0.63120
C         40.22015        40.13095        -0.74925
C         39.02074        39.46415        -0.78406
C         40.24523        41.58050        -0.46527
C         38.98107        42.31902        -0.19817
C         40.27949        44.50558        -0.25046
C         38.98055        43.80884        -0.30001
C         40.39862        45.70404         0.63533
C         39.11662        46.41721         1.02993
C         40.69590        48.15023         1.81957
C         39.56569        47.74945         1.50569
C         42.53764        24.54462        -0.41058
C         41.15739        25.11224        -0.30240
C         42.68984        27.29160         0.15738
C         41.39359        26.56321         0.33280
C         42.77663        28.79287         0.54262
C         41.43751        29.52269         0.49638
C         42.67715        31.69931         0.19368
C         41.45429        31.00117         0.46856
C         42.69057        33.21177         0.11901
C         41.47918        33.83507         0.84203
C         42.75976        35.99663         0.25460
C         41.44553        35.41693         0.78439
C         42.78388        37.25857        -0.25447
C         41.52498        37.93799        -0.68544
C         42.78198        40.24101        -0.63238
C         41.52874        39.45502        -0.87204
C         42.76895        41.59429        -0.55316
C         41.49175        42.34302        -0.87451
C         42.66311        44.57544        -0.75358
C         41.54367        43.69864        -0.18408
C         42.83471        45.73781         0.17847
C         41.77876        46.25432         0.86097
C         43.37895        47.70515         1.90142
C         41.93649        47.27075         2.03441
C         43.58132        25.18606        -0.52774
C         45.15341        27.24593        -0.38553
C         43.79305        26.66157        -0.74970
C         45.12019        28.80978        -0.55316
C         43.87911        29.54708        -0.17891
C         45.16794        31.67264        -0.05073
C         43.93719        31.02724         0.02262
C         45.23106        33.18110        -0.12563
C         44.02933        33.75236         0.69477
C         45.32962        35.90043         0.24107
C         44.02502        35.32692         0.80366
C         45.35826        37.34553        -0.05992
C         44.06027        38.00922        -0.44522
C         45.30544        40.23965        -0.21929
C         44.07070        39.49856        -0.60174
C         45.31381        41.70892        -0.39582
C         43.99616        42.41977        -0.17219
C         45.07477        44.73971        -0.14604
C         44.02516        43.83383        -0.84475
C         45.20550        46.17212        -0.80792
C         44.29194        46.00485         0.40605
C         44.29185        46.92767         1.54858
C         47.27756        27.58362        -1.48786
C         46.28438        26.85980        -1.34086
C         47.54045        28.96654        -1.16288
C         46.39738        29.56522        -0.62616
C         47.72622        31.68648        -0.26080
C         46.47133        30.89215         0.08731
C         47.75169        33.05997         0.00731
C         46.56679        33.77860         0.29048
C         47.80955        35.90721         0.56235
C         46.61691        35.19303         0.51898
C         47.81003        37.37054         0.81917
C         46.50079        38.14902         0.51853
C         47.37747        40.50045         1.00309
C         46.37380        39.63958         0.39822
C         47.58307        41.82852         0.73715
C         46.46910        42.54179         0.06698
C         47.58502        44.74867         0.76960
C         46.27513        44.00510         0.42967
C         47.42770        46.13755         0.30681
C         46.54561        46.60594        -0.42072
C         50.03478        29.12018        -1.61914
C         48.78870        29.62048        -1.17631
C         50.15400        31.66765        -0.83702
C         48.91725        31.00949        -0.74749
C         50.26290        33.00843        -0.20675
C         49.01246        33.87594        -0.27420
C         50.35325        35.96697         0.26264
C         49.11606        35.13303         0.61659
C         50.36341        37.32322         0.44421
C         49.15481        38.05035         0.83068
C         50.41726        40.25987         1.24382
C         49.26557        39.33766         1.27585
C         50.25162        41.78366         1.19159
C         48.96091        42.46684         0.61030
C         50.14595        44.47950         0.85144
C         48.87925        44.02992         0.81949
C         51.20358        29.56448        -1.62235
C         52.60322        31.69071        -1.07863
C         51.36608        31.07431        -1.67140
C         52.60585        32.86305        -0.68189
C         51.60009        33.72612        -0.07327
C         52.75418        36.01339         0.26057
C         51.60008        35.21813        -0.29652
C         52.78655        37.25023         0.26540
C         51.64466        38.16390         0.34726
C         52.83883        40.49849         1.05577
C         51.69483        39.60677         0.74433
C         52.66426        41.73350         0.98679
C         51.55654        42.62324         0.97796
C         51.34504        43.96418         0.85824
O         41.59386        38.54453        -2.01329
O         44.22376        38.62689        -1.77072
O         32.13033        39.99164        -2.16311
O         33.66762        43.45311        -2.08136
O         50.37964        41.10725         2.45145
O         39.71866        45.42716         1.91609
O         42.58821        33.67582        -1.29601
O         46.85547        37.71860         1.86903
O         44.05592        35.67649         2.16179
O         48.18901        39.89186         1.95156
O         50.99773        33.12228         1.07264
O         46.64570        44.34803         1.79465
O         32.00126        37.38319        -2.00277
O         45.54171        36.35048        -1.16092
O         46.28490        42.23631        -1.37819
O         44.13440        29.22223        -1.57555
O         39.81464        41.85899         0.93562
O         51.56006        39.22006        -0.64792
O         39.57438        44.45560        -1.50965
O         42.42761        26.51046         1.36336
O         51.59650        35.36221        -1.71105
H         51.65608        36.31355        -1.93998
O         51.20650        31.50345        -2.99936
H         51.98836        31.23308        -3.52363
O         36.14822        35.66415         1.54063
H         36.87100        35.31013         2.10521
O         37.83898        28.34110        -0.52621
H         37.91775        29.15308        -1.08192
O         42.29377        45.09983        -2.03411
H         42.11196        44.33201        -2.62779
O         44.73022        46.45909        -2.06140
H         43.85620        46.01597        -2.22280
O         39.94895        33.37175        -1.10521
H         40.80370        33.25544        -1.58666
O         45.46860        26.88383         0.92648
H         46.33356        27.26521         1.18158
O         41.35746        35.91525         2.12849
H         41.38099        35.12753         2.72836
O         38.53676        30.87396        -0.84626
H         38.65701        31.76280        -1.26518
O         35.59002        45.17281        -2.19775
H         34.77192        45.55920        -2.57365
O         36.65806        33.33249        -1.34364
H         35.89927        33.68295        -1.87131
O         37.80374        31.85899         2.66290
H         38.26064        31.03945         2.99599
O         37.92109        40.66492        -2.44459
H         37.07017        41.04289        -2.78610
O         35.48725        35.57229        -2.06612
H         34.81237        36.04468        -2.59851
O         43.47389        26.91127        -2.10179
H         44.28620        26.81392        -2.64356
O         35.47527        41.78167        -2.70429
H         35.05056        42.60970        -3.03910
O         40.58836        25.24279        -1.56287
H         40.52862        24.36947        -1.99952
O         41.44440        42.54828        -2.30414
H         41.45374        41.67410        -2.74968
O         44.07855        42.51784         1.26974
H         43.27196        42.96263         1.63356
O         46.58479        30.55456         1.51627
H         46.30990        31.34014         2.03803
O         41.55572        33.40801         2.21299
H         42.50976        33.22056         2.42670
O         36.40767        38.37376         1.21186
H         36.31050        37.47239         1.62216
O         35.05989        33.52389         2.02827
H         35.73515        33.04174         2.55375
O         43.18156        28.85547         1.93145
H         42.85468        28.02886         2.36313
O         39.13410        34.19924         2.35412
H         38.91306        33.35549         2.82144
O         41.75747        46.60500         3.24947
H         41.84501        47.24023         3.98805
O         48.88192        34.37078        -1.62417
H         48.85318        33.61166        -2.24363
O         42.74902        32.53818        -2.18619
H         43.73386        32.55824        -2.35061
O         49.22975        42.30188        -0.81035
H         48.42837        42.53125        -1.33164
O         37.32493        41.21603         1.15475
H         38.17304        41.05150         1.62706
O         41.75876        43.53124         1.23184
H         40.99075        43.02404         1.59799
O         34.04863        33.16456        -1.47201
H         33.23418        33.43051        -1.94924
O         37.83032        27.57982         3.04730
H         37.90224        26.70159         3.47812
O         39.23661        29.73725         2.58409
H         38.99336        28.89066         3.03849
O         33.96651        39.73086         1.03112
H         34.83490        39.39343         1.37913
O         44.29319        43.68181        -2.23963
H         45.16762        43.23585        -2.34722
O         49.24899        34.70007         1.98691
H         49.19918        35.48347         2.57346
O         44.19706        33.25173         2.02735
H         44.28954        34.10257         2.57884
O         45.12592        33.52292        -1.53911
H         45.24057        34.49613        -1.65426
