         324
 CSIRO Nanostructure Databank - Neutral Graphene Oxide Data Set
C          1.56932         2.00509         1.93145
C          1.38824         3.30592         1.55882
C          2.83138         1.33846         1.84006
C          2.49896         4.10650         1.01292
C          1.31978         6.40888         1.54529
C          1.37529         7.76231         1.58458
C          2.47454         5.62939         1.04591
C          2.54770         8.51811         1.17797
C          1.24631        10.72365         1.11031
C          1.23344        12.08209         0.92065
C          2.51004         9.99374         1.19624
C          2.40040        12.84598         0.64558
C          1.33127        14.99904         1.41905
C          1.45548        16.30976         1.72511
C          2.17925        14.32838         0.36420
C          2.57546        17.10498         1.27339
C          2.66344        18.49195         1.57122
C          3.96564         1.98609         1.36882
C          3.82766         3.39129         0.88877
C          5.23941         1.34297         1.31703
C          5.08570         4.18293         0.77083
C          3.77686         6.39297         1.09556
C          3.73130         7.86682         0.87011
C          5.08084         5.67624         0.95905
C          4.88965         8.56660         0.34753
C          3.76841        10.75122         0.71253
C          3.63091        12.19009         0.35824
C          4.88321         9.94258         0.18504
C          4.74244        12.87471        -0.14710
C          3.47660        15.09507         0.07924
C          3.64472        16.47086         0.59478
C          4.73634        14.34115        -0.29300
C          4.87942        17.13255         0.43700
C          3.80180        19.20403         1.27082
C          4.98144        18.53773         0.79308
C          6.44478         2.03425         1.11594
C          6.38185         3.51630         1.09458
C          7.69455         1.40624         0.91358
C          7.60209         4.30448         0.76955
C          6.23844         6.40249         0.41193
C          6.06979         7.76995        -0.10225
C          7.41567         5.62150         0.08154
C          7.30467         8.49067        -0.61261
C          6.00182        10.65445        -0.49275
C          5.96400        12.16280        -0.56911
C          7.32772         9.97856        -0.61056
C          7.23561        12.91043        -0.64769
C          6.03247        15.05423        -0.29359
C          6.04137        16.41777        -0.02508
C          7.25495        14.30641        -0.56837
C          7.28357        17.20033        -0.21446
C          6.19397        19.21755         0.74570
C          7.47126        18.45103         0.62028
C          8.89978         2.10888         0.65008
C          8.91649         3.59400         0.67775
C         10.10418         1.45585         0.36175
C         10.11131         4.32870         0.14176
C          8.68522         6.33891        -0.42448
C          8.65122         7.84535        -0.32644
C         10.00190         5.72484        -0.30789
C          9.78529         8.47291        -1.11560
C          8.47356        10.67357        -0.86472
C          8.55243        12.15551        -0.56488
C          9.71523         9.96512        -1.30910
C          9.67619        12.87985        -1.29091
C          8.50708        15.01165        -0.71767
C          8.54022        16.47285        -0.61109
C          9.72010        14.34568        -0.99542
C          9.82702        17.16190        -0.45802
C          8.66377        19.24645         0.18887
C          9.83540        18.58975        -0.20492
C         11.28714         2.13263        -0.07006
C         11.28513         3.56057        -0.28714
C         12.48472         1.42192        -0.27874
C         12.36779         4.24334        -0.83583
C         11.16097         6.40959        -0.74299
C         11.10377         7.80202        -1.08118
C         12.37136         5.67572        -0.99108
C         12.25791         8.51562        -1.44143
C         11.00764        10.66665        -1.48689
C         10.93022        12.13845        -1.68994
C         12.18855         9.96763        -1.61900
C         12.22173        12.90642        -1.78379
C         10.93527        15.05250        -1.02564
C         11.00568        16.45434        -0.70658
C         12.18799        14.36350        -1.40130
C         12.27282        17.16404        -0.70378
C         11.07267        19.28400        -0.31052
C         12.28607        18.59698        -0.52626
C         13.64141         2.05620        -0.78842
C         13.52462         3.44752        -1.27933
C         14.87689         1.41073        -0.84016
C         14.79925         4.19717        -1.68993
C         13.54121         6.38716        -1.40324
C         13.50609         7.80645        -1.53651
C         14.78863         5.67849        -1.61828
C         14.74220         8.54907        -1.70135
C         13.43832        10.68257        -2.11812
C         13.50677        12.14760        -1.71732
C         14.72092         9.93224        -1.82427
C         14.70098        12.80759        -1.55306
C         13.45390        15.00091        -0.93770
C         13.48222        16.47868        -0.85088
C         14.71641        14.23213        -1.11316
C         14.72966        17.16077        -0.80387
C         13.52636        19.28089        -0.52606
C         14.74769        18.59126        -0.65326
C         16.08302         2.10489        -1.15563
C         16.06251         3.46904        -1.52160
C         17.33680         1.42665        -1.06058
C         17.31150         4.15783        -1.81523
C         15.98462         6.38011        -1.69226
C         16.00269         7.81740        -1.62228
C         17.27441         5.69806        -1.94718
C         17.22638         8.46967        -1.49022
C         15.97661        10.69418        -1.91249
C         15.99037        12.13429        -1.61637
C         17.28947         9.92533        -1.66278
C         17.20923        12.78641        -1.40847
C         15.95671        15.02959        -1.32218
C         15.95831        16.45527        -0.93951
C         17.26779        14.27441        -1.41762
C         17.18424        17.13306        -0.86184
C         16.00095        19.26927        -0.66486
C         17.20155        18.56614        -0.75350
C         18.56842         2.08060        -1.20180
C         18.60514         3.51433        -1.48695
C         19.78016         1.37134        -1.04929
C         19.78407         4.21376        -1.52252
C         18.52960         6.40356        -1.66613
C         18.48010         7.75047        -1.36373
C         19.84554         5.69135        -1.92381
C         19.66322         8.46064        -0.90031
C         18.41751        10.66556        -1.10717
C         18.41830        12.04871        -1.12440
C         19.51295         9.87167        -0.50767
C         19.69541        12.76960        -0.85421
C         18.46463        15.01459        -0.98883
C         18.42739        16.39432        -0.82011
C         19.73946        14.30613        -0.82103
C         19.66542        17.11158        -0.59512
C         18.47646        19.23539        -0.84805
C         19.66147        18.54432        -0.81057
C         21.02666         2.01943        -1.13770
C         21.05722         3.46516        -1.44686
C         22.23219         1.34311        -0.93531
C         22.35912         4.21058        -1.18758
C         21.06098         6.44632        -1.29990
C         20.87289         7.80892        -0.71518
C         22.33014         5.69676        -0.98238
C         22.01653         8.47721        -0.13331
C         20.75278        10.60224        -0.03392
C         20.81190        12.05473        -0.23576
C         22.01122         9.84930         0.11446
C         21.96254        12.74060         0.13931
C         20.85871        14.99021        -0.12427
C         20.82591        16.44710        -0.15581
C         21.92767        14.18058         0.30966
C         22.02364        17.27427         0.02476
C         20.95508        19.25903        -1.14001
C         22.17003        18.55433        -0.59102
C         23.45678         2.03296        -0.68216
C         23.48527         3.45868        -0.61846
C         24.63015         1.31431        -0.36894
C         24.58183         4.13424        -0.03616
C         23.37557         6.28132        -0.10266
C         23.19514         7.68727         0.30553
C         24.51756         5.57745         0.22950
C         24.42950         8.43278         0.78137
C         23.19398        10.59774         0.49476
C         23.14197        12.00141         0.54363
C         24.44372         9.90823         0.72743
C         24.32810        12.73766         1.00686
C         23.05360        14.72150         1.03890
C         23.10807        16.82821         0.77984
C         24.32512        14.21260         0.99442
C         24.45364        17.24166         0.60559
C         23.41490        19.16574        -0.56821
C         24.57090        18.50876        -0.04926
C         25.77641         1.98159         0.08529
C         25.71565         3.38459         0.34078
C         27.03338         1.27992         0.15599
C         26.84947         4.04759         0.99745
C         25.70118         6.24980         0.79032
C         25.71223         7.70672         0.86547
C         26.84945         5.52508         1.08405
C         26.87750         8.42764         1.06869
C         25.64681        10.58211         0.92196
C         25.63202        12.02509         1.21199
C         26.90217         9.88287         1.04937
C         26.87885        12.82702         1.20095
C         25.53589        15.00325         1.50988
C         25.60504        16.46266         0.98908
C         26.84327        14.22595         1.24325
C         26.86061        17.08970         0.87913
C         25.83615        19.14017        -0.02203
C         26.92550        18.47636         0.50307
C         28.20599         1.91535         0.48740
C         28.16048         3.26241         1.10039
C         29.48849         1.31297         0.21247
C         29.45683         4.00568         1.25313
C         28.08327         6.21203         1.54622
C         28.10500         7.71520         1.46436
C         29.41992         5.50993         1.47824
C         29.39410         8.43158         1.33852
C         28.08502        10.61133         1.22073
C         28.10875        12.06001         1.20869
C         29.35881         9.90668         1.66020
C         29.33835        12.73800         1.27205
C         28.08239        14.96675         1.23675
C         28.11672        16.35880         1.07616
C         29.34328        14.20596         1.39547
C         29.38237        17.05827         0.85113
C         28.17104        19.27359         0.76023
C         29.41190        18.45377         0.59030
C         30.64790         2.03190         0.25846
C         30.67069         3.41572         0.65584
C         31.79692         4.20181         0.51054
C         30.62033         6.28769         1.09543
C         30.58280         7.74971         1.17818
C         31.76537         5.60672         0.72656
C         31.81460         8.50599         1.10435
C         30.61437        10.63355         1.25161
C         30.58849        12.02819         1.16299
C         31.81550         9.87342         1.11472
C         31.78842        12.76537         0.81682
C         30.67348        14.93602         1.15083
C         30.61721        16.35909         0.76865
C         31.82413        14.11310         0.74510
C         31.79148        17.02898         0.37992
C         30.59090        19.10519         0.22966
C         31.78597        18.39219         0.10792
O         19.70507        10.16040         0.92225
O          7.08981         4.25228         2.14123
O         27.27630         3.37310         2.24171
O          9.43340         9.01505        -2.40826
O         24.76714        12.31250         2.38335
O         14.11475        14.37123         0.22690
O          6.41436         7.88487        -1.56055
O         27.93143         7.01671         2.76539
O          3.83672        14.91911        -1.33200
O         13.87943         3.62579        -2.68271
O          2.17895         4.89559        -0.18308
O         22.20238         6.45811        -2.23439
O         21.99045         3.80503        -2.54252
O         17.29334         4.83667        -3.11799
O         29.66002         4.57589         2.57766
O         22.82682        15.88714         1.76106
O         16.87372        10.33104        -3.00692
O         20.13714        13.55559        -2.02354
O          9.87906         4.17619         1.62585
O          7.68286        17.24477        -1.59878
O          3.49665        10.54367         2.13708
O          7.80061         5.64092        -1.34284
O          4.57709         6.07112         2.29557
O         23.44872         7.89409         1.74167
O         30.18897        14.67801         2.50407
O         16.59432        14.81713        -2.61486
O          9.90454        12.52165        -2.67169
O          4.46255         3.64507        -0.42092
O         12.23350        13.94728        -2.81270
O          5.66456        11.30167        -1.76798
O         20.02399         5.70636        -3.35471
H         20.90927         5.30655        -3.52879
O         28.11453        19.77011         2.11856
H         28.07923        18.99699         2.71968
O         25.42413        15.08129         2.95380
H         25.24135        14.16532         3.26960
O          8.90667         8.15582         1.07835
H          9.60188         7.55022         1.41617
O         13.32737        10.69776        -3.57447
H         13.19037         9.77725        -3.88296
O         21.05061        19.37877        -2.57426
H         21.02566        18.47811        -2.95815
O          8.95660        12.22777         0.84984
H          8.29959        11.73855         1.38949
O          7.77544        17.92292         1.98073
H          7.89220        18.69340         2.57640
O          1.37120        14.37594        -0.84896
H          2.00892        14.40488        -1.60179
O         29.32730         9.96959         3.13362
H         28.68324         9.29671         3.44680
H          0.71317         1.43582         2.32058
H          0.39102         3.76314         1.61830
H          2.90562         0.29645         2.18177
H          0.39155         5.88544         1.81411
H          0.49542         8.32035         1.93418
H          0.29753        10.17254         1.15876
H          0.26387        12.59928         0.90064
H          0.48840        14.42798         1.83442
H          0.73291        16.78625         2.40502
H          1.80055        18.99312         2.03268
H          5.27245         0.25397         1.47541
H          3.85828        20.27937         1.49287
H          7.72709         0.30585         0.89953
H          6.22900        20.28669         1.00739
H         10.13756         0.35724         0.42150
H          8.69061        20.32813         0.39058
H         12.53465         0.35562        -0.01337
H         11.09176        20.37180        -0.14743
H         14.94514         0.35783        -0.53005
H         13.53445        20.37365        -0.39923
H         17.33274         0.35029        -0.83540
H         16.01527        20.36746        -0.60401
H         19.74763         0.29529        -0.82481
H         18.48615        20.32743        -0.98340
H         22.21717         0.24992        -0.81436
H         20.92380        20.30600        -0.74167
H         24.64763         0.22216        -0.49346
H         23.53109        20.17413        -0.99043
H         27.06899         0.25256        -0.23684
H         25.93877        20.17701        -0.37406
H         29.50250         0.26582        -0.12289
H         28.20179        20.17292         0.09605
H         31.59790         1.56441        -0.03860
H         32.72129         3.75159         0.12119
H         32.68326         6.16289         0.49478
H         32.77277         7.97802         1.02390
H         32.77844        10.39032         1.00858
H         32.68983        12.20522         0.53650
H         32.73719        14.60200         0.38015
H         32.74342        16.48570         0.32321
H         30.57074        20.18798         0.04127
H         32.71561        18.90452        -0.17364
