         655
 CSIRO Nanostructure Databank - Neutral Graphene Oxide Data Set
C          6.02877        32.05624         0.53477
C          6.01453        33.39770         0.29401
C          8.49320        27.77738         0.82001
C          8.45772        29.15082         0.51201
C          7.26013        29.91571         0.64864
C          8.42897        31.95001        -0.07334
C          7.23446        31.27985         0.37330
C          8.40832        33.33943        -0.34602
C          7.19931        34.09377        -0.14674
C          8.35369        36.15686        -0.80559
C          7.18917        35.47150        -0.36136
C          8.34563        37.55631        -1.02463
C         10.91044        23.55835         1.55476
C         10.93174        24.86374         0.89849
C          9.75712        25.64979         1.02484
C         10.85222        27.67929         0.18147
C          9.68038        27.02254         0.65751
C         10.86678        29.06348        -0.04349
C          9.65787        29.81356         0.08425
C         10.83917        31.86851        -0.62174
C          9.64099        31.20540        -0.21319
C         10.82095        33.25653        -0.94363
C          9.58777        34.00746        -0.81218
C         10.69724        36.08276        -1.63362
C          9.54239        35.39540        -1.05077
C         10.74732        37.56920        -1.65309
C          9.49380        38.28516        -1.40956
C         10.69849        40.42789        -1.62117
C          9.51530        39.69005        -1.35903
C         10.77276        41.78723        -1.36564
C         13.47483        19.33663         2.14115
C         13.33354        20.62027         1.61431
C         12.13514        21.34169         1.89215
C         13.49290        23.35535         0.22228
C         11.72544        22.49839         1.18318
C         13.38905        24.80077         0.24527
C         12.10160        25.45178         0.32952
C         13.32402        27.68045         0.19932
C         12.07910        26.88257        -0.16618
C         13.34708        29.10054        -0.21281
C         12.10790        29.76118        -0.34406
C         13.30793        31.83226        -0.87354
C         12.07843        31.15056        -0.64111
C         13.28295        33.22729        -1.24101
C         12.03259        33.89748        -1.30417
C         13.25658        36.03593        -1.83826
C         11.99627        35.29545        -1.75058
C         13.23979        37.54062        -1.67149
C         11.91417        38.23377        -1.90482
C         13.17939        40.46334        -2.19309
C         11.84662        39.70874        -2.30577
C         13.23316        41.84472        -1.66610
C         12.00746        42.52916        -1.40202
C         13.25149        44.61401        -1.01566
C         12.02833        43.90651        -1.13243
C         13.27750        46.00232        -0.70463
C         15.99453        15.13532         2.91792
C         15.94752        16.48901         2.53504
C         14.70925        17.19246         2.43391
C         15.87682        19.16584         1.59956
C         14.67601        18.54286         2.04381
C         15.83693        20.63371         1.28061
C         14.48733        21.12284         0.71482
C         15.88295        23.32653         0.58529
C         14.60285        22.63631         0.55251
C         15.90378        24.84270         0.60937
C         14.58872        25.49870         0.27052
C         15.88309        27.67499        -0.00905
C         14.62733        26.96783         0.33112
C         15.86195        29.07664        -0.22828
C         14.58153        29.78942        -0.33219
C         15.78382        31.94019        -0.78990
C         14.53901        31.16068        -0.68677
C         15.76402        33.25859        -1.45680
C         14.48805        33.91066        -1.58763
C         15.69151        36.01578        -2.24105
C         14.43769        35.31996        -1.87319
C         15.70603        37.48881        -2.03131
C         14.44460        38.21884        -2.25020
C         15.72712        40.32885        -1.64483
C         14.47308        39.68799        -2.22661
C         15.73043        41.83189        -1.66385
C         14.47669        42.51490        -1.51473
C         15.70769        44.54569        -0.79979
C         14.48495        43.90027        -1.14078
C         15.66967        45.88515        -0.35721
C         14.47119        46.64137        -0.37876
C         15.75904        48.83584        -0.03988
C         14.45082        48.07502         0.13515
C         15.77504        50.21554         0.10352
C         18.40329        10.89972         2.43657
C         18.44992        12.29297         2.69838
C         17.25750        13.00287         2.91891
C         18.52947        15.15829         3.02590
C         17.23134        14.42692         3.39314
C         18.43252        16.46108         2.29815
C         17.15925        17.20689         2.25390
C         18.35494        19.22965         1.36561
C         17.12371        18.51405         1.72021
C         18.34116        20.49901         0.84091
C         17.02457        21.12004         0.41303
C         18.34972        23.33731         0.42324
C         17.05424        22.63338         0.51072
C         18.35732        24.78350         0.03161
C         17.01471        25.41971        -0.28931
C         18.27952        27.59365        -0.49858
C         17.06732        26.93629        -0.21451
C         18.30608        29.00590        -0.54220
C         17.09714        29.73531        -0.47367
C         18.26705        31.82981        -1.33093
C         17.11427        31.20298        -0.68075
C         18.24304        33.18112        -1.69887
C         16.98050        33.88054        -1.76431
C         18.27354        36.04524        -2.13807
C         16.99741        35.28606        -2.21418
C         18.28618        37.45334        -2.19349
C         17.01274        38.19993        -1.98979
C         18.23723        40.43510        -2.17346
C         16.92693        39.68209        -2.36242
C         18.21931        41.76873        -1.53997
C         16.95901        42.46176        -1.38415
C         18.17556        44.40140        -0.50608
C         16.96308        43.81165        -0.88626
C         18.18108        45.78085        -0.06094
C         16.87562        46.49464         0.30478
C         18.18273        48.48839        -0.12876
C         16.93410        47.98246         0.02379
C         18.26292        50.60581         0.13238
C         16.91344        51.10873         0.38034
C         18.03325        53.01453         1.52241
C         16.81116        52.31965         1.03475
C         18.14092        54.47856         1.68737
C         20.58001         6.59460         1.58104
C         20.68080         7.95240         1.93074
C         19.50964         8.74194         2.04529
C         20.86175        10.78766         2.27676
C         19.58016        10.13371         2.27712
C         20.90156        12.21054         2.41427
C         19.75012        12.93830         2.70858
C         21.03248        15.12643         2.33683
C         19.81750        14.41287         2.82284
C         21.02409        16.49752         2.15174
C         19.70961        17.15387         1.94680
C         20.93491        19.26835         1.33045
C         19.66014        18.62187         1.73222
C         20.86782        20.41227         0.35136
C         19.56776        21.19478         0.46913
C         20.74142        23.21661        -0.41601
C         19.56224        22.53489         0.17990
C         20.74717        24.67798        -0.68280
C         19.56674        25.37898        -0.58945
C         20.78906        27.49991        -1.22808
C         19.48406        26.81179        -0.91412
C         20.91560        28.93938        -0.75025
C         19.60058        29.72021        -0.73808
C         20.66106        31.64033        -2.14397
C         19.55739        31.11975        -1.25785
C         20.72739        33.16130        -2.03700
C         19.47911        33.87423        -1.99638
C         20.71529        36.02982        -2.21091
C         19.48981        35.31268        -2.12238
C         20.72121        37.43207        -2.24141
C         19.50851        38.16203        -2.22736
C         20.74283        40.33227        -1.71057
C         19.53320        39.65408        -2.20313
C         20.70872        41.66060        -1.28665
C         19.43654        42.36894        -1.18287
C         20.66531        44.33031        -0.36352
C         19.43776        43.71246        -0.66881
C         20.68767        45.68960         0.26608
C         19.38685        46.40059         0.08497
C         20.59866        48.57894         0.85733
C         19.38035        47.83485         0.40935
C         20.57523        50.07184         1.27701
C         19.35132        50.90247         0.88946
C         20.61458        52.94447         1.31372
C         19.31388        52.23251         1.53590
C         20.63896        54.41616         1.51938
C         19.36476        55.11902         1.85627
C         20.70256        57.15257         2.37209
C         19.46276        56.48503         2.22747
C         20.74891        58.50982         2.77259
C         22.88488         3.84931         0.33463
C         21.71798         4.50464         0.64966
C         23.12113         6.32137         1.77274
C         21.74201         5.71337         1.47122
C         23.18742         7.77142         2.16456
C         21.96469         8.59626         2.11857
C         23.36671        10.64527         2.14667
C         22.05699         9.99652         2.17805
C         23.42421        12.11615         1.96419
C         22.17059        12.91213         2.09834
C         23.47523        15.02866         2.10125
C         22.27322        14.38810         2.23231
C         23.55128        16.53711         2.16322
C         22.23868        17.21777         1.85942
C         23.43148        19.24233         1.05583
C         22.22132        18.52180         1.39485
C         23.38795        20.57072         0.61490
C         22.07644        21.32739         0.61168
C         23.30310        23.25281        -0.57425
C         22.05199        22.50688        -0.33595
C         23.27485        24.59028        -0.90957
C         22.02100        25.33947        -0.99167
C         23.26289        27.41516        -1.77054
C         22.04121        26.70601        -1.21957
C         23.41566        28.91073        -1.29413
C         22.08622        29.66569        -1.40436
C         23.15237        31.59395        -2.54106
C         21.97538        30.89628        -1.96655
C         23.17315        33.09014        -2.47479
C         21.93039        33.82935        -2.14756
C         23.26310        35.97142        -2.12897
C         21.98135        35.28427        -2.55097
C         23.26562        37.38568        -2.00432
C         22.02273        38.15049        -2.26914
C         23.25110        40.26330        -1.43755
C         22.01961        39.63794        -1.92898
C         23.21296        41.63004        -1.03380
C         21.94437        42.33610        -0.94145
C         23.15492        44.45004        -0.29956
C         21.91684        43.67862        -0.51309
C         23.14348        45.81763        -0.21537
C         21.84126        46.58305        -0.22105
C         23.07600        48.61413         0.66305
C         21.89961        47.91557         0.55580
C         23.11207        50.04208         1.01416
C         21.86959        50.81673         1.06070
C         23.17670        52.92957         1.13832
C         21.87476        52.16607         1.25518
C         23.14886        54.34737         1.69120
C         21.94225        55.05309         1.81936
C         23.19495        57.08556         2.29541
C         21.94455        56.41642         2.18799
C         23.12548        58.49832         2.38278
C         21.97770        59.21046         2.82551
C         23.32111        61.04873         3.87983
C         22.13862        60.54062         3.33311
C         24.16016         4.42175         0.57066
C         25.51633         6.41550         1.03764
C         24.30067         5.69895         1.13387
C         25.66311         7.76010         1.44051
C         24.52309         8.46622         2.08813
C         25.89172        10.59634         2.22802
C         24.53519         9.94183         2.06566
C         25.89332        12.09075         1.98358
C         24.74052        12.79934         2.03222
C         25.93034        14.94430         1.49717
C         24.79192        14.30089         2.25721
C         25.88139        16.34784         1.17921
C         24.70762        17.11848         1.37223
C         25.88816        19.16404         0.68023
C         24.69420        18.50068         1.03647
C         25.88832        20.68047         0.62289
C         24.56696        21.26588         0.18529
C         25.69330        22.91357        -1.34939
C         24.53525        22.50540        -0.45422
C         25.61913        24.43361        -1.82183
C         24.62508        25.28641        -0.98336
C         25.73542        27.30675        -1.93665
C         24.56718        26.69258        -1.54971
C         25.70071        28.68507        -2.57397
C         24.52206        29.50481        -2.11867
C         25.77060        31.63648        -2.81777
C         24.45113        30.84727        -2.63344
C         25.69539        33.19151        -2.89559
C         24.50104        33.73243        -2.08769
C         25.68877        35.92368        -1.81655
C         24.45887        35.24793        -2.06317
C         25.66436        37.32507        -1.54101
C         24.44926        38.07027        -1.66339
C         25.65583        40.15228        -1.05778
C         24.44908        39.50369        -1.40250
C         25.65998        41.57952        -0.80449
C         24.41482        42.28385        -0.69826
C         25.60795        44.52320        -0.95470
C         24.47172        43.70009        -0.21337
C         25.65633        45.90563        -0.31186
C         24.37466        46.68885        -0.45116
C         25.52616        48.57869         0.71356
C         24.36027        47.97502         0.36118
C         25.53912        49.86460         1.51212
C         24.29191        50.67279         1.29288
C         25.61251        52.81058         1.71385
C         24.28322        52.09941         1.79148
C         25.62438        54.19694         1.92011
C         24.39871        54.98077         1.96628
C         25.70462        56.98135         2.68033
C         24.44378        56.37360         2.26067
C         25.81898        58.25406         3.34916
C         24.91834        59.30511         3.16775
C         24.57249        60.40598         3.98079
C         26.81340         8.48938         1.12988
C         28.10780        10.54823         1.09166
C         26.96879         9.87632         1.44177
C         28.44817        11.96161         1.48964
C         27.22315        12.84003         1.99607
C         28.23691        14.83353         0.73355
C         27.08657        14.19583         1.28950
C         28.26127        16.24879         0.56197
C         27.07461        17.00527         0.75438
C         28.34793        19.08150         0.36136
C         27.10640        18.42926         0.59273
C         28.40058        20.60170         0.35552
C         27.10117        21.27169        -0.06468
C         28.22519        22.92900        -1.62489
C         27.02983        22.40264        -0.81667
C         28.17750        24.44994        -1.79349
C         26.97149        25.14838        -1.88173
C         28.15766        27.29306        -2.46419
C         26.96485        26.56419        -2.04013
C         28.20717        28.77443        -2.34007
C         26.99342        29.48628        -2.39166
C         28.24304        31.58764        -2.28309
C         27.02028        30.90327        -2.45261
C         28.27604        33.07336        -2.27130
C         27.00424        33.86333        -2.44924
C         28.11500        35.83847        -1.38609
C         26.93883        35.22107        -1.84830
C         28.07354        37.22867        -1.01816
C         26.87103        37.97505        -1.16218
C         28.05378        40.04085        -0.58528
C         26.86900        39.39441        -0.94754
C         28.17053        41.53293        -0.71730
C         26.87183        42.27515        -0.75644
C         28.03001        44.36312         0.05853
C         26.99484        43.77971        -0.90255
C         28.02190        45.74529         0.32955
C         26.80966        46.51185         0.08449
C         28.03823        48.56445         0.94000
C         26.83680        48.02012         0.20782
C         28.03190        49.95719         1.27879
C         26.81802        50.66639         1.37388
C         28.08570        52.75142         1.78668
C         26.82242        52.06456         1.62366
C         28.08206        54.13643         2.07319
C         26.88088        54.86059         2.15755
C         26.87210        56.20910         2.59703
C         29.21020        12.57445         0.29581
C         30.54780        14.69184        -0.02489
C         29.38570        14.06480         0.37466
C         30.64036        16.11998        -0.05586
C         29.47801        16.90165         0.21973
C         30.83055        18.96838         0.00544
C         29.54480        18.33106         0.18051
C         30.84721        20.41767         0.02749
C         29.56564        21.00770        -0.56652
C         30.33553        23.43902        -0.46554
C         29.46383        22.47538        -0.88100
C         30.54577        24.62337        -1.24282
C         29.42595        25.16100        -1.86296
C         30.74129        27.27363        -2.13847
C         29.51711        26.52699        -2.39329
C         30.72380        28.71495        -2.40886
C         29.44317        29.45376        -2.26817
C         30.70231        31.57881        -1.86302
C         29.46445        30.86960        -2.15142
C         30.62572        32.97574        -1.53373
C         29.44772        33.72364        -1.63773
C         30.48822        35.77138        -0.70235
C         29.37386        35.11692        -1.26616
C         30.44615        37.14762        -0.29880
C         29.24142        37.88236        -0.53007
C         30.36085        39.92490         0.26833
C         29.21550        39.28510        -0.27715
C         30.23932        41.29787         0.78254
C         29.04118        42.11463         0.39411
C         30.22093        44.15886         1.18711
C         29.10535        43.58082         0.52111
C         30.27135        45.57537         1.31498
C         29.16367        46.35963         0.92087
C         30.40542        48.42997         1.58645
C         29.17912        47.79591         1.13940
C         30.45129        49.83618         1.70929
C         29.28265        50.61792         1.57641
C         29.28663        52.01155         1.79084
C         31.83958        16.76832        -0.39887
C         33.22571        18.73544        -0.82310
C         31.98480        18.17237        -0.33281
C         33.67744        19.98181        -0.38274
C         31.97877        21.08459         0.44254
C         33.31391        23.07501        -0.28544
C         32.23408        22.49963         0.31083
C         33.19562        24.41828        -0.98495
C         31.93303        25.08707        -1.52653
C         33.32024        27.22205        -2.00398
C         32.01801        26.44913        -2.26259
C         33.32092        28.73830        -2.07681
C         32.03227        29.49609        -2.31299
C         33.14628        31.51348        -1.36915
C         31.95899        30.90474        -1.85374
C         33.03754        32.83608        -0.73213
C         31.86625        33.66443        -1.13900
C         32.87464        35.60831         0.21951
C         31.79798        35.09320        -0.68740
C         32.76018        37.03222         0.67832
C         31.58589        37.81299         0.23148
C         32.72338        39.92454         0.96182
C         31.54961        39.21272         0.48712
C         32.66955        41.25234         1.34640
C         31.42767        41.99743         1.28598
C         32.48310        43.97398         2.37193
C         31.35894        43.35060         1.57710
C         32.57433        45.45945         2.20555
C         31.48841        46.21833         1.80351
C         31.53982        47.64091         1.85120
C         34.54637        20.91789        -0.97270
C         35.66790        23.11004        -0.80266
C         34.53449        22.33522        -0.67419
C         35.61470        24.53487        -0.30284
C         34.42611        25.24118        -0.92305
C         35.68686        27.32895        -1.16419
C         34.47184        26.55698        -1.32403
C         35.69073        28.72095        -1.30864
C         34.49568        29.46445        -1.54606
C         35.61883        31.61900        -0.99170
C         34.41556        30.85669        -1.32607
C         35.56858        32.89682        -0.48946
C         34.27200        33.54471        -0.21181
C         35.35992        35.72175         0.41480
C         34.21419        34.98462         0.12471
C         35.31704        37.07568         0.86229
C         33.99259        37.75099         1.22108
C         35.21866        39.92186         1.38851
C         34.03884        39.21472         0.76244
C         35.13350        41.24819         1.76368
C         33.88283        41.96755         1.75601
C         33.80164        43.27421         2.16711
C         36.89286        25.27870        -0.49049
C         38.12994        27.36383        -0.64990
C         36.91642        26.63299        -0.78939
C         38.19784        28.76360        -0.82048
C         36.97503        29.46097        -1.29756
C         38.21273        31.70861        -0.93937
C         36.93339        30.97333        -1.25671
C         38.11524        33.21249        -0.69084
C         36.80716        33.59530         0.02621
C         37.94175        35.85243         0.46401
C         36.68380        35.11784         0.10237
C         37.86041        37.17207         1.20469
C         36.49125        37.81565         1.14522
C         36.42376        39.17527         1.48157
C         39.33022        29.46768        -0.42727
C         40.50750        31.63466         0.20086
C         39.43750        30.92439        -0.53419
C         40.43142        32.95825         0.45993
C         39.27225        33.77690         0.13550
C         39.16608        35.03399         0.64217
O         20.39746        19.48418         2.68742
O         19.46462        15.06453         4.14207
O         22.65987        12.50323         0.75214
O         18.96727        16.40677         0.91218
O         33.35761        32.78063         0.70202
O         22.46164         5.50575         2.76136
O         29.02751        41.41544         1.66203
O         19.02446        40.35434        -3.41101
O         16.27275        35.54083        -3.49456
O         22.15103        39.13773        -3.32787
O         24.20301        59.23096         1.93309
O         31.15726        23.31790         0.65469
O         18.38279        49.64153        -0.87770
O         37.05651        30.26748        -2.52300
O         25.24291        44.71847        -2.28098
O         18.62242        52.37440         2.79772
O         19.86601        27.19131        -2.30315
O         32.27491        34.76169        -2.03490
O         33.09010        20.35475         0.86352
O         27.46591        13.22292         3.34024
O         28.82138        26.77752        -3.64798
O         13.88876        27.48117         1.52300
O         22.96834        32.39326        -3.75433
O         20.56464        53.85801         0.14084
O         27.96490        33.74709        -3.55912
O         11.11263        35.50967        -2.92314
O         18.55829        24.40577         1.42841
O         19.85029        30.86906         0.16856
O         19.70172        47.91148         1.86718
O         12.33102        22.63968        -0.09261
O         21.25799        22.38942        -1.55453
O         32.69554        24.12424        -2.34079
O         16.56773        31.96349         0.45620
O         39.24830        31.43360        -1.92540
O         24.03901         7.92502         3.36497
O         32.37586        35.90677         1.57003
O         25.51377        22.10586        -2.50156
O         33.72922        27.91781        -3.22266
O         25.11655        31.02318        -3.95181
O         37.41346        35.89704        -0.89391
O         31.46669        29.19681        -3.61602
O         16.39448        37.79343        -0.71373
O         13.96802        40.35562        -3.43688
O         17.12190        14.38011         4.85366
H         18.03527        14.50570         5.20868
O         22.04601        35.27910        -4.01572
H         21.29562        34.74599        -4.35315
O         13.42631        37.71441        -0.19166
H         14.39639        37.69891        -0.00838
O         25.09956        24.43139        -3.15388
H         25.09483        23.46200        -3.41773
O         21.92290        21.90757         1.93584
H         21.62159        21.20332         2.55348
O         25.46814        33.56743        -4.24925
H         26.31951        33.47878        -4.73237
O         23.96852        52.00968         3.21228
H         24.43803        51.21896         3.56510
O         28.43208        12.28617        -0.88146
H         28.85061        12.72898        -1.64796
O         24.75303        33.29643        -0.71564
H         24.12796        33.75811        -0.11756
O         29.36284        11.84123         2.58884
H         28.89410        12.30741         3.34595
O         28.91550        41.74806        -1.95419
H         28.58661        42.60126        -2.35139
O         24.28889        47.09961        -1.85886
H         24.57484        46.26156        -2.35522
O         26.20955        10.43218         3.64126
H         26.04453         9.49641         3.88452
O         15.78100        40.04335        -0.22107
H         15.06166        40.54424         0.21704
O         16.87317        20.74047        -0.97149
H         15.90822        20.70766        -1.18651
O         21.55307        46.96881        -1.58781
H         22.42665        47.19529        -2.00376
O         32.13640        43.75699         3.79804
H         31.95024        42.79944         3.90666
O         23.83801        28.89397         0.09223
H         23.01917        28.74543         0.63469
O         23.02440        27.51330        -3.19836
H         23.34718        26.69253        -3.62895
O         20.86486        45.46810         1.69806
H         20.52562        46.27802         2.15659
O         38.09512        33.79816        -1.99973
H         38.75708        33.31570        -2.54307
O         12.12998        26.80532        -1.63453
H         11.32979        26.32637        -1.93764
O         28.73149        21.02529         1.69621
H         27.88497        21.07355         2.20536
O         20.97349        19.80337        -0.94581
H         20.95276        20.52858        -1.61605
O         16.60326        39.70911        -3.76493
H         17.44507        39.83734        -4.26262
O         23.47786        53.05535        -0.27464
H         22.68929        53.45986        -0.70080
O         27.58855        43.99838        -2.21761
H         26.79442        44.29644        -2.76711
O         20.50290        50.07008         2.73232
H         19.79559        49.43780         2.99532
O         33.89591        37.74923         2.66300
H         33.42999        36.91794         2.91288
O         35.36539        24.45546         1.15480
H         35.52789        25.34558         1.53273
O         26.02633        21.08009         2.04644
H         25.23487        20.75036         2.52602
O         16.19148        25.29646         1.95422
H         15.52219        24.91846         2.56109
O         28.09447        22.31858        -2.93223
H         27.10306        22.17184        -3.07179
O         25.50008        49.49368         2.94648
H         26.29104        48.94223         3.13076
O         21.25231        28.77036         0.66933
H         20.98335        29.60818         1.11660
O         14.24908        20.53446        -0.58917
H         13.42449        20.94636        -0.93397
O         23.89464        16.88385         3.54994
H         24.46054        16.14046         3.89374
O         16.67296        25.06664        -1.65036
H         17.34936        25.44147        -2.25371
O         24.90976        43.68815         1.17489
H         24.18031        43.33110         1.72401
O         29.40212        20.29153        -1.81338
H         28.90376        20.87028        -2.45292
O         16.68826        46.31467         1.74782
H         16.73354        45.35409         1.93957
O         11.48613        39.69964        -3.71447
H         12.33419        39.72163        -4.21925
O         25.14877        14.47743         3.67345
H         26.05397        14.02635         3.77989
O         15.95426        21.28994         2.57592
H         16.81277        21.03192         2.97405
O         32.00668        26.10042        -3.66597
H         32.29617        26.90405        -4.15962
O         34.26168        39.16259        -0.67469
H         34.35292        40.07974        -1.00734
O         38.21851        36.97010         2.58605
H         37.45311        36.57674         3.05314
O         25.56491        28.41659        -3.99927
H         25.45768        29.28655        -4.45548
O         26.95739        48.52690        -1.16373
H         26.18856        48.16827        -1.66804
O         36.94744        33.11772         1.40111
H         36.06490        33.15104         1.82877
O         25.17152        25.35854         0.36081
H         24.60783        25.95749         0.89374
O         14.21124        48.00315         1.55782
H         14.96907        47.50975         1.95058
O         20.23491        31.36697        -3.50620
H         20.97241        31.64660        -4.09688
H          5.11626        31.54174         0.86989
H          5.09017        33.97728         0.43314
H          7.58347        27.28040         1.18773
H          6.34262        29.41212         0.98808
H          6.26467        36.04247        -0.18884
H          7.41347        38.10906        -0.83213
H         10.25119        23.45129         2.42943
H          8.86707        25.18488         1.47394
H          8.63023        40.22449        -0.97970
H          9.86844        42.31705        -1.02723
H         12.61859        18.89024         2.67124
H         11.52628        21.00289         2.74540
H         11.08006        44.44211        -0.97907
H         12.32899        46.55795        -0.66093
H         15.04166        14.60365         3.06506
H         13.77860        16.68265         2.72189
H         13.59391        48.63414        -0.31631
H         14.78708        50.69921         0.19180
H         17.42617        10.39652         2.39236
H         16.30576        12.45106         2.88646
H         15.82535        52.74837         1.27197
H         17.21406        55.06185         1.80658
H         19.59148         6.19018         1.31616
H         18.52580         8.25746         1.96339
H         18.53737        57.04653         2.42708
H         19.81192        59.03172         3.01429
H         22.83575         2.90361        -0.22376
H         20.75087         4.12946         0.28517
H         23.21851        61.99266         4.43914
H         21.21963        61.11976         3.51009
H         25.05143         3.91431         0.17447
H         26.37647         5.91768         0.56333
H         26.65614        58.37745         4.05315
H         25.26473        60.72617         4.77244
H         27.63935         7.97828         0.60934
H         28.88287        10.00217         0.52652
H         29.03616        54.64815         2.26845
H         27.82831        56.66497         2.89604
H         30.21551        12.07361         0.20864
H         31.42995        14.09544        -0.30387
H         31.40297        50.32499         1.96528
H         30.23559        52.52382         2.00791
H         32.71022        16.15954        -0.68509
H         33.76872        18.18613        -1.60640
H         33.48873        45.96530         2.55237
H         32.47114        48.12905         2.17577
H         35.27773        20.56590        -1.71614
H         36.62130        22.67896        -1.14095
H         36.02543        41.75986         2.15742
H         34.71400        43.79279         2.50050
H         37.82692        24.78028        -0.18988
H         39.02915        26.82636        -0.31358
H         38.62281        37.87572         0.78161
H         37.34318        39.68911         1.80138
H         40.17483        28.91336         0.00971
H         41.38311        31.05377         0.52623
H         41.24908        33.45036         1.00925
H         39.97576        35.45437         1.25841
