         234
 CSIRO Nanostructure Databank - Neutral Graphene Oxide Data Set
C          1.57756         2.04633         2.40411
C          1.37791         2.90580         1.31543
C          2.85488         1.86166         2.91037
C          2.44862         3.66208         0.80944
C          1.07218         6.45208        -0.58728
C          1.04214         7.81448        -0.60710
C          2.31614         5.73932        -0.40222
C          2.25057         8.59050        -0.55745
C          1.03456        10.76695        -0.34718
C          1.03689        12.12147        -0.33924
C          2.22563         9.97702        -0.58221
C          2.20636        12.96014        -0.80458
C          1.11109        15.07644         0.13501
C          1.17914        16.40949         0.52774
C          2.27196        14.35744        -0.20666
C          2.42303        17.06723         0.62385
C          2.52033        18.46725         0.99129
C          3.95767         2.57325         2.36144
C          3.73655         3.58452         1.37114
C          5.27963         2.17394         2.67445
C          4.90605         4.39497         0.94201
C          3.53573         6.34944        -0.35773
C          3.57892         7.88158        -0.29116
C          4.79212         5.60837         0.03956
C          4.74348         8.54739        -1.01720
C          3.45406        10.74450        -0.91555
C          3.51504        12.19971        -0.69695
C          4.74037        10.02290        -1.14079
C          4.72883        12.83582        -0.74504
C          3.51951        15.00467        -0.12674
C          3.59736        16.34225         0.31993
C          4.73427        14.31804        -0.65599
C          4.90189        17.00988         0.52677
C          3.70903        19.13704         1.01265
C          4.95807        18.46832         0.73600
C          6.39298         2.66011         1.94224
C          6.24998         3.77335         1.05825
C          7.65742         2.03782         2.08534
C          7.40750         4.33527         0.44830
C          5.99867         5.85485        -0.76825
C          5.83689         7.94083        -1.52411
C          7.27421         5.46553        -0.47640
C          7.17388         8.55313        -1.70483
C          6.02809        10.74577        -1.11114
C          5.99745        12.12245        -0.90241
C          7.26262        10.01523        -1.39859
C          7.25270        12.85690        -0.86211
C          6.05079        15.01619        -0.65276
C          6.16260        16.34321         0.02484
C          7.29773        14.21811        -0.71459
C          7.34546        17.16605        -0.21954
C          6.17606        19.11941         0.69821
C          7.38968        18.47983         0.24868
C          8.77099         2.51020         1.38701
C          8.65143         3.68978         0.59662
C         10.02370         1.77130         1.43099
C          9.86186         4.09664        -0.22670
C          8.45879         6.16211        -1.11900
C          8.43375         7.66446        -1.53370
C          9.80487         5.53679        -0.82459
C          9.77240         8.42006        -1.51930
C          8.47990        10.65368        -1.29962
C          8.51614        12.07120        -0.86157
C          9.76628         9.95257        -1.52256
C          9.82645        12.80281        -0.87306
C          8.54383        15.00173        -0.90700
C          8.51932        16.51251        -0.83354
C          9.84865        14.29329        -0.89498
C          9.84256        17.29185        -0.89157
C          8.64498        19.19276         0.26573
C          9.83456        18.61019        -0.13501
C         11.18683         2.34789         0.99262
C         11.10282         3.81954         0.64423
C         12.44378         1.65735         0.91826
C         12.33268         4.32922        -0.02264
C         11.01746         6.41021        -0.72370
C         11.03797         7.75020        -1.08925
C         12.26504         5.78386        -0.26457
C         12.28223         8.50583        -1.14934
C         11.04513        10.70054        -1.33549
C         11.06085        12.05354        -1.21124
C         12.32677         9.94950        -1.64670
C         12.33654        12.81412        -1.22412
C         11.01281        14.98317        -0.77020
C         11.00469        16.44177        -0.32984
C         12.31859        14.28189        -0.93866
C         12.35307        17.14986        -0.59499
C         11.09693        19.22516         0.11659
C         12.32269        18.56185        -0.03155
C         13.58032         2.24602         0.38171
C         13.49435         3.62372        -0.09712
C         14.87068         1.59784         0.40885
C         14.68879         4.25456        -0.70447
C         13.56150         6.50306        -0.47826
C         13.50792         7.87613        -0.97350
C         14.78203         5.71700        -0.71343
C         14.78369         8.54422        -1.07535
C         13.56906        10.68556        -1.16069
C         13.58944        12.06472        -0.98498
C         14.79260         9.96677        -1.06033
C         14.80331        12.76970        -0.67286
C         13.53438        14.87508        -0.29531
C         13.51005        16.34632        -0.03731
C         14.83044        14.16424        -0.36306
C         14.79518        17.01408         0.17783
C         13.54537        19.15693         0.33793
C         14.77059        18.44455         0.41624
C         16.03068         2.16921        -0.07634
C         15.98424         3.47350        -0.78923
C         17.33369         1.64057         0.25715
C         17.23292         4.23949        -0.93568
C         15.97927         6.36752        -0.94285
C         15.99809         7.81454        -0.99801
C         17.23238         5.62638        -1.00416
C         17.24334         8.50008        -1.00744
C         16.02481        10.66002        -0.90653
C         16.04000        12.07023        -0.68862
C         17.24041         9.91956        -0.95569
C         17.28443        12.77988        -0.54863
C         16.02238        14.83484        -0.00336
C         15.94747        16.25047         0.30217
C         17.32221        14.15127        -0.03980
C         17.08426        16.87747         0.99633
C         15.96673        19.09069         0.79376
C         17.13768        18.36045         1.08151
C         18.50388         2.24079        -0.13444
C         18.46589         3.39791        -1.13580
C         19.79782         1.78835         0.33992
C         19.73693         4.18983        -1.09959
C         18.46923         6.37172        -0.96503
C         18.49256         7.77218        -0.97455
C         19.71573         5.60477        -0.79750
C         19.74572         8.51571        -0.99989
C         18.46296        10.64319        -1.06273
C         18.42365        12.05708        -0.96104
C         19.67555         9.90179        -1.20577
C         20.23526        13.02625        -0.12152
C         18.48789        14.76291         0.51009
C         18.31148        16.05395         1.24625
C         19.82408        14.16566         0.61736
C         19.49227        16.81215         1.79669
C         18.33698        19.00212         1.40552
C         19.52706        18.28867         1.71292
C         20.96948         2.33267        -0.06268
C         21.01137         3.39835        -1.14192
C         22.25546         4.25008        -1.12971
C         21.02701         6.35422        -0.67747
C         21.01604         7.85131        -0.76611
C         22.25576         5.58797        -1.01211
C         22.14419         8.48462        -0.26346
C         21.50569        10.87744        -0.36586
C         21.31687        12.18839         0.24744
C         22.25868         9.84954         0.14867
C         22.14493        12.62628         1.30160
C         20.83070        14.67261         1.50405
C         20.78772        16.07699         1.99146
C         21.95010        13.89750         1.83533
C         22.02315        16.87656         2.01759
C         20.72781        18.94793         1.96556
C         21.95913        18.24152         2.08506
O         19.57143        12.77249        -1.32968
O          2.17494         4.34762        -0.38045
O         20.39414         5.88647         0.55307
O          8.30235        15.84808        -2.12754
O          7.84254         7.93844        -2.83698
O         12.49427        13.80650        -2.31178
O          5.78719         6.59832        -1.92010
O         15.09175         3.57814        -1.94789
O          5.24916        14.98824        -1.87741
O          9.26364        12.28437         0.40506
O         19.88604        16.31071         3.12344
O          5.01885         5.79687         1.49701
O          5.78525        16.26229         1.44770
O         13.19934        15.39821         1.04962
O          9.89108         9.17073        -2.76710
O          9.18948         5.44638        -2.16272
O         17.24832        16.11214         2.26133
O         12.95299         6.43985         0.88764
O          3.89551        10.41705        -2.31075
O         20.83013        10.61653        -1.57999
O          9.93879         3.17614        -1.33380
H          9.43594         3.57958        -2.08051
O          2.00415        13.16009        -2.24159
H          2.29307        12.34202        -2.70169
O          3.83185         8.22654         1.11628
H          4.28136         7.46204         1.55166
O         10.75561        16.41682         1.09374
H         11.51443        15.94521         1.51906
O         12.62797        17.21574        -2.00849
H         11.82064        17.58542        -2.44956
O         21.05825         2.65810        -2.42311
H         21.19894         3.31602        -3.13722
O         10.06466        17.63698        -2.27723
H          9.56317        16.97573        -2.81643
O         10.92686         4.58112         1.87233
H         11.77647         5.01812         2.09906
O         12.46314         9.89425        -3.09535
H         11.61190         9.53368        -3.44531
O         18.32832         2.77189        -2.45390
H         19.19811         2.34338        -2.64762
H          0.73125         1.47934         2.81539
H          0.39092         2.99233         0.84357
H          3.03984         1.12107         3.70066
H          0.14859         5.86555        -0.67759
H          0.08159         8.32982        -0.74864
H          0.10901        10.24225        -0.06612
H          0.09360        12.63801        -0.10929
H          0.12440        14.60071         0.05293
H          0.25580        16.96204         0.75304
H          1.58727        19.00287         1.22022
H          5.43361         1.36249         3.40036
H          3.73311        20.21021         1.25307
H          7.75100         1.15766         2.73775
H          6.21838        20.19359         0.93440
H         10.00674         0.73179         1.79265
H          8.66673        20.18709         0.73810
H         12.49047         0.61740         1.27767
H         11.09897        20.23491         0.55895
H         14.93834         0.62975         0.93023
H         13.54429        20.21506         0.64435
H         17.37540         0.75920         0.91838
H         15.97704        20.18468         0.91152
H         19.80597         0.97999         1.08912
H         18.36569        20.10230         1.41667
H         21.92284         1.97162         0.35087
H         23.19885         3.72676        -1.35118
H         23.19991         6.14164        -1.13134
H         22.96848         7.83094         0.06312
H         22.95175        10.05111         0.97830
H         22.99847        12.01853         1.62994
H         22.67374        14.29166         2.56139
H         22.99695        16.36851         1.97187
H         20.74378        20.04732         1.97076
H         22.88881        18.82403         2.15849
