         324
 CSIRO Nanostructure Databank - Neutral Graphene Oxide Data Set
C          1.22201         3.44179         0.39128
C          0.01909         4.13174         0.37923
C          1.17659         6.24805        -0.09727
C         -0.00728         5.50908         0.14044
C          1.12493         7.66223        -0.33950
C         -0.07143         8.43149        -0.21542
C          1.02903        10.57051        -0.82494
C         -0.09983         9.80308        -0.27476
C          1.14511        12.03862        -0.57107
C         -0.05231        12.77616        -0.29694
C          1.18550        14.86566        -0.06269
C         -0.02530        14.14551        -0.09673
C          1.22605        16.28357         0.03912
C          0.01575        17.03366         0.37231
C          1.12049        19.14416        -0.18788
C         -0.05501        18.37733         0.28079
C          1.08503        20.63836        -0.33033
C         -0.10440        21.47636        -0.03343
C          1.28819        23.16621         1.18755
C         -0.00779        22.68506         0.55119
C          1.38341        24.67342         1.47693
C          0.24462        25.36840         1.95076
C          1.51790        27.43912         2.10555
C          0.29600        26.73274         2.19198
C          1.57176        28.86654         2.20289
C          3.66634         3.42512         0.18316
C          2.44344         4.12673         0.14139
C          3.66874         6.18442        -0.42351
C          2.43285         5.54008        -0.11794
C          3.71478         7.65548        -0.57187
C          2.37459         8.41110        -0.49703
C          3.58951        10.54843        -1.24107
C          2.30452         9.78847        -1.06524
C          3.62254        12.02294        -0.94772
C          2.37050        12.68727        -0.52120
C          3.67519        14.86559        -0.54033
C          2.48262        14.10173         0.00036
C          3.64041        16.28254        -0.56989
C          2.42752        16.97169        -0.21322
C          3.63632        19.16967        -0.54277
C          2.45612        18.45374         0.06406
C          3.63693        20.56493        -0.49889
C          2.38218        21.41298        -0.46047
C          3.67818        23.27761         0.44736
C          2.49076        22.63558         0.42423
C          3.77840        24.75660         0.70045
C          2.61131        25.34912         1.44290
C          3.99176        27.40464         1.91198
C          2.72374        26.72353         1.84142
C          4.01681        28.84451         1.89021
C          2.74880        29.52892         1.99637
C          6.12912         3.40342         0.05882
C          4.88828         4.07450        -0.08018
C          6.13881         6.08239        -0.87250
C          4.86632         5.45751        -0.46756
C          6.14533         7.58534        -1.25215
C          4.88210         8.31359        -1.13291
C          6.18919        10.50634        -1.26792
C          4.87689         9.76427        -1.33859
C          6.23613        11.92749        -0.73239
C          4.93915        12.69762        -0.63106
C          6.06747        14.89471        -1.07087
C          4.89492        14.18832        -0.75448
C          6.05970        16.32597        -1.13615
C          4.83985        17.01647        -0.88429
C          6.03084        19.18783        -1.12294
C          4.83252        18.45946        -0.84514
C          6.03934        20.60128        -0.97422
C          4.85560        21.26862        -0.63637
C          6.19307        23.38705        -0.05537
C          4.91938        22.61309        -0.01005
C          6.29912        24.73555         0.52469
C          5.11630        25.18295         1.25762
C          6.55433        27.11772         1.95677
C          5.19461        26.54757         1.91113
C          6.50117        29.32321         1.93551
C          5.14352        29.69502         1.70191
C          8.57168         3.44233         0.30020
C          7.36051         4.10168        -0.00234
C          8.60175         6.21891        -0.37702
C          7.39101         5.47847        -0.40870
C          8.63918         7.61648        -0.74122
C          7.42770         8.32351        -1.10397
C          8.66576        10.44706        -1.46919
C          7.43089         9.70720        -1.20250
C          8.59161        11.95452        -1.81680
C          7.56836        12.65774        -0.88452
C          8.56729        14.91237        -1.44509
C          7.39230        14.21607        -0.80773
C          8.56520        16.39261        -1.41867
C          7.28456        17.08531        -1.35699
C          8.49172        19.26962        -1.63887
C          7.25111        18.48625        -1.40952
C          8.54671        20.73939        -1.42254
C          7.24891        21.41567        -1.28591
C          8.53118        23.67523        -0.97954
C          7.25897        22.89110        -0.96244
C          8.61329        24.94916        -0.25062
C          7.51589        25.45811         0.46290
C          8.87252        27.51153         1.08802
C          7.63203        26.73380         1.18860
C          8.95595        28.91567         1.73419
C          7.69808        29.72662         1.41012
C         10.98109         3.47673         0.69977
C          9.78866         4.15488         0.39991
C         10.95946         6.34223         0.32450
C          9.78456         5.58510         0.13212
C         10.98242         7.71372        -0.01256
C          9.83648         8.35247        -0.53153
C         11.05505        10.62090        -0.54429
C          9.93138         9.76630        -0.97665
C         11.01916        11.99439        -0.66174
C          9.71023        12.66003        -0.99254
C         11.13409        14.84888        -1.23228
C          9.83878        14.11907        -1.40213
C         11.07311        16.36122        -1.32036
C          9.76557        17.05623        -1.42236
C         10.97742        19.29467        -1.03346
C          9.80573        18.52281        -1.54683
C         11.02251        20.74235        -1.33207
C          9.75903        21.43285        -1.37506
C         11.09334        23.57388        -0.90329
C          9.81371        22.91487        -1.26597
C         11.12528        24.92722        -0.52667
C          9.85303        25.76965        -0.48638
C         11.23749        27.67177         0.38633
C          9.95071        26.99677         0.39991
C         11.28677        29.08035         0.78505
C         10.17211        29.68299         1.29980
C         13.49089         3.55564         1.16006
C         12.18237         4.18584         1.10622
C         13.45256         6.42954         0.84987
C         12.15052         5.73969         0.96373
C         13.45954         7.77579         0.51352
C         12.18902         8.49900         0.33864
C         13.45306        10.76248         0.20692
C         12.20673         9.98485         0.10810
C         13.39430        12.14223         0.15399
C         12.18977        12.78088        -0.31355
C         13.34284        14.95545        -0.05216
C         12.23747        14.17663        -0.50534
C         13.05473        16.35640         0.08641
C         12.12534        17.08922        -0.58887
C         13.51723        19.24456        -0.78023
C         12.16939        18.58245        -0.49440
C         13.53005        20.63156        -1.39101
C         12.25341        21.42216        -1.31522
C         13.54317        23.57533        -1.20971
C         12.28445        22.82569        -1.11248
C         13.57415        24.96286        -0.74179
C         12.38736        25.61423        -0.39030
C         13.73007        27.66652         0.29061
C         12.39459        27.01263         0.01717
C         13.69870        29.18032         0.30480
C         12.50432        29.82236         0.59168
C         15.91843         3.63523         1.50797
C         14.67430         4.29829         1.28979
C         15.90866         6.44878         1.13354
C         14.67512         5.73200         1.11340
C         15.95257         7.85038         0.84346
C         14.72530         8.49352         0.37746
C         15.94993        10.74182         0.65511
C         14.72737        10.04478         0.28444
C         15.88770        12.20214         0.87622
C         14.57412        12.94415         0.59178
C         15.85003        15.11274         0.52028
C         14.60778        14.40822         0.36790
C         15.99723        16.55998         0.30577
C         14.89895        17.44600         0.33446
C         16.06078        19.31160        -0.64320
C         14.82713        18.67183        -0.33949
C         16.10485        20.68478        -1.04179
C         14.88931        21.33906        -1.67941
C         16.12907        23.56718        -1.21117
C         14.84741        22.85839        -1.47674
C         16.12146        25.00098        -1.14641
C         14.82615        25.70808        -1.00747
C         16.15260        27.83101        -0.46521
C         14.85060        27.15475        -0.58706
C         16.14671        29.23782        -0.11627
C         14.92060        29.87960         0.18583
C         18.36984         3.66915         1.83421
C         17.12104         4.34001         1.58562
C         18.35481         6.48673         1.42335
C         17.12892         5.76317         1.39201
C         18.37136         7.90207         1.21551
C         17.14799         8.59054         0.91295
C         18.38230        10.77914         0.95973
C         17.14416        10.04087         0.80851
C         18.38520        12.21304         0.88642
C         17.14413        12.97138         0.81720
C         18.36468        15.13147         0.77763
C         17.08674        14.36816         0.70690
C         18.45260        16.50608         0.25205
C         17.23658        17.21129         0.02374
C         18.51790        19.28025        -0.43725
C         17.26750        18.59684        -0.34558
C         18.55003        20.68414        -0.72327
C         17.31783        21.38930        -1.03120
C         18.58227        23.58009        -1.30231
C         17.31820        22.83455        -1.20345
C         18.59181        25.04521        -1.14415
C         17.32454        25.73827        -1.09167
C         18.55149        27.94802        -0.97201
C         17.30848        27.16842        -0.84718
C         18.57615        29.33849        -0.48325
C         17.36008        29.95472        -0.11898
C         19.54398         4.36683         1.88275
C         20.77836         6.51580         1.72923
C         19.57254         5.78824         1.67943
C         20.78694         7.89146         1.54143
C         19.59858         8.61307         1.28443
C         20.81706        10.77588         1.12375
C         19.60158        10.06238         1.11533
C         20.82922        12.15578         1.00050
C         19.63303        12.88379         0.90372
C         20.89241        15.03554         0.39075
C         19.68329        14.36173         0.88062
C         20.90035        16.36390         0.11764
C         19.68771        17.14639         0.09307
C         20.94884        19.26966        -0.18985
C         19.72978        18.56319        -0.19517
C         20.97373        20.63844        -0.41276
C         19.79648        21.35508        -0.68481
C         20.99232        23.59809        -0.47531
C         19.89584        22.80060        -1.00203
C         20.98112        24.96059        -0.57958
C         19.82085        25.70081        -0.97124
C         21.08002        27.93135        -0.61962
C         19.89854        27.18178        -1.04221
C         21.02807        29.29335        -0.42735
C         19.80611        30.00289        -0.37340
O          1.28754        22.52385         2.44902
O          3.25062         8.36060         0.68026
O         11.87741         9.41752         1.47020
O         14.98260        12.58839         1.96485
O          8.69656        12.51389         0.16015
O          9.58475         9.82136        -2.42225
O          5.92713        22.46600         1.09290
O         13.78284        17.04242         1.05945
O          5.13349        25.30068         2.70298
O         11.22111        19.14999         0.45344
O          3.50716        11.52461        -2.31895
O         19.47831        23.11148        -2.35959
O          6.17896         6.53411        -2.27392
O          1.39255        10.02495        -2.15770
O          5.57569        10.23951        -2.56479
O         19.07108        14.98070         2.05868
O         14.13717        23.47656        -2.59618
O         14.88104         9.18152        -0.91230
O          5.58957        12.13262         0.56395
O          9.14284        14.37774        -2.65968
O          9.28440        18.94078        -2.83981
O         19.25102        27.73789        -2.22985
O          6.61078        28.21089         2.82113
O          0.92950        19.75229        -1.50561
O         13.48016        19.45469        -2.24452
O         11.91949         5.12259         2.23897
O          6.87647        22.45464        -2.28824
O          9.13205        23.68157        -2.32303
O         11.54273        15.55868        -2.45273
O         14.54865        26.81337        -1.96332
O          9.12283        28.76954         3.16784
H          8.26614        28.43865         3.52919
O         14.11705        27.25044         1.64448
H         13.45593        27.61734         2.26962
O         15.14202        21.15689        -3.09221
H         14.57142        21.79578        -3.57657
O          2.64024        18.56773         1.51498
H          3.47708        18.11765         1.75667
O          7.53468        14.53692         0.61533
H          6.97714        13.90239         1.11990
O          2.77612        13.96058         1.45158
H          1.97591        13.58331         1.87615
O          2.32236        22.00750        -1.80514
H          1.95990        21.31015        -2.39876
O          9.71520        26.32108        -1.84306
H          9.57421        25.54771        -2.44397
O          3.76273        25.35301        -0.64474
H          2.99102        24.99031        -1.13108
O          8.44566        12.09300        -3.20144
H          8.96074        11.38055        -3.63848
H          1.24465         2.36059         0.58741
H         -0.92336         3.59775         0.56323
H         -0.97983         6.01804         0.14193
H         -0.99699         7.91751         0.07896
H         -1.02205        10.32538         0.01421
H         -1.02383        12.26943        -0.35618
H         -0.98231        14.68042        -0.03160
H         -0.86845        16.47417         0.70723
H         -0.99315        18.90794         0.49644
H         -1.08081        21.10850        -0.38514
H         -0.92700        23.25998         0.74281
H         -0.71126        24.83779         2.06196
H         -0.62046        27.28157         2.45360
H          0.64000        29.42598         2.36993
H          3.66731         2.35809         0.44979
H          2.76173        30.62873         1.99218
H          6.13305         2.33692         0.32628
H          4.93391        30.73536         1.40762
H          8.55524         2.36888         0.53766
H          7.75027        30.54630         0.68002
H         10.99637         2.37717         0.67185
H         10.21464        30.74749         1.57722
H         13.54965         2.46006         1.07769
H         12.48413        30.91516         0.72236
H         15.92043         2.54329         1.64171
H         14.92071        30.97065         0.33336
H         18.36145         2.58000         1.98555
H         17.36254        31.01387         0.17925
H         20.49262         3.84521         2.07660
H         21.72072         5.98576         1.92868
H         21.74969         8.41501         1.60441
H         21.77461        10.25192         1.23206
H         21.79290        12.68033         1.03173
H         21.80697        14.44942         0.22707
H         21.83963        16.82796        -0.21197
H         21.89491        18.75040         0.00891
H         21.94084        21.15861        -0.40906
H         21.82436        23.10362         0.04450
H         21.86686        25.51330        -0.23882
H         22.03166        27.40836        -0.45437
H         21.95604        29.83487        -0.19412
H         19.81642        31.06658        -0.09558
