         404
 CSIRO Nanostructure Databank - Neutral Graphene Oxide Data Set
C          1.27650         3.75384         1.86660
C          0.12280         4.36254         1.46258
C          0.77244         6.75484         1.30195
C         -0.02308         5.70545         0.93327
C          0.86480         8.06768         0.65306
C         -0.10871         8.51336        -0.26899
C          1.21401        10.51472        -0.77086
C          0.03661         9.73955        -0.89950
C          1.32566        11.82426        -1.38910
C          0.26329        12.38375        -2.12572
C          1.51808        14.40676        -2.52128
C          0.34924        13.66282        -2.67904
C          1.51735        16.83118        -2.43585
C          0.26272        17.42371        -2.24798
C          1.30147        19.41093        -1.25953
C          0.15403        18.68012        -1.64835
C          1.23472        20.76927        -0.74866
C          0.03760        21.39591        -0.41868
C          1.15503        23.51736         0.15579
C         -0.01831        22.74426        -0.03241
C          1.11959        24.91660         0.53442
C         -0.11811        25.63906         0.50275
C          1.03029        27.78856         0.62816
C         -0.15861        27.01272         0.51233
C          1.05456        29.18065         0.48576
C         -0.11964        29.93745         0.23374
C          1.06766        32.07697         0.13927
C         -0.10954        31.30845         0.01020
C          1.12287        33.47681        -0.09033
C         -0.08346        34.27239        -0.17490
C          1.13166        36.25987        -0.95418
C         -0.08070        35.60370        -0.45679
C          1.24907        37.72523        -1.02686
C          3.75169         3.59645         1.52631
C          2.60304         4.35489         1.78481
C          3.88898         6.42923         1.44955
C          2.73258         5.77098         1.86884
C          3.94284         7.87693         1.32298
C          2.00139         8.89077         0.82943
C          3.60956        10.66270        -0.01974
C          2.29266        10.01927         0.01980
C          3.68117        11.99224        -0.56657
C          2.52558        12.57201        -1.20858
C          3.88079        14.54571        -1.76178
C          2.63312        13.86112        -1.82136
C          3.96563        16.81058        -1.93303
C          2.69240        17.49975        -1.99952
C          3.80801        19.50489        -1.07851
C          2.57009        18.79406        -1.44119
C          3.73611        20.81489        -0.43174
C          2.49897        21.60096        -0.76565
C          3.61264        23.54823         0.36692
C          2.41363        22.90418        -0.02987
C          3.57983        24.93821         0.78284
C          2.31797        25.60363         0.80615
C          3.52623        27.81898         1.34252
C          2.25703        27.06466         1.06002
C          3.60216        29.25289         0.96652
C          2.38374        29.88658         0.31782
C          3.58855        32.11542         0.65653
C          2.28262        31.37074         0.58965
C          3.60562        33.50250         0.17188
C          2.39295        34.12751        -0.18296
C          3.70073        36.21334        -0.73434
C          2.44553        35.46627        -0.78225
C          3.70975        37.59479        -1.08103
C          2.45532        38.32320        -1.18332
C          6.19844         3.49549         0.99705
C          5.00040         4.22095         1.22357
C          6.20454         6.31697         0.67530
C          5.02021         5.64751         1.07970
C          6.13380         7.76361         0.20362
C          4.90759         8.54823         0.63157
C          6.06466        10.67940         0.12473
C          4.83636         9.98315         0.29155
C          6.10702        12.06620        -0.14850
C          4.90115        12.73587        -0.51613
C          6.12354        14.93711        -0.74913
C          4.97265        14.10328        -1.00487
C          6.13265        16.35917        -0.74934
C          5.02268        17.22187        -1.14553
C          6.11495        19.27341        -0.03636
C          5.07828        18.67901        -0.87700
C          6.09406        20.62934         0.31594
C          4.86340        21.40803         0.12941
C          5.97349        23.46383         1.07890
C          4.81096        22.79926         0.49721
C          6.02439        24.93353         1.06899
C          4.79644        25.62695         1.03863
C          6.08191        27.78557         1.17439
C          4.82736        27.04499         1.58107
C          6.08000        29.19298         1.09934
C          4.80798        29.92531         0.97967
C          6.04620        32.05998         0.66504
C          4.85859        31.36074         0.70969
C          6.07747        33.47806         0.35478
C          4.86010        34.15745         0.02910
C          6.13461        36.22094        -0.47560
C          4.89237        35.53937        -0.38247
C          6.15671        37.57178        -0.95744
C          4.93617        38.25123        -1.20948
C          8.65720         3.47453         0.54753
C          7.41699         4.16228         0.72959
C          8.67772         6.30480         0.49285
C          7.39127         5.59477         0.59807
C          8.67058         7.78969         0.49547
C          7.37252         8.53321         0.58944
C          8.63249        10.69185         0.05955
C          7.35866        10.00935         0.40448
C          8.59586        12.11357        -0.14043
C          7.36037        12.77995        -0.17750
C          8.60153        14.97085        -0.35382
C          7.30095        14.27568        -0.05007
C          8.55243        16.36405        -0.28302
C          7.30150        17.03362        -0.25965
C          8.56444        19.14781         0.61529
C          7.26317        18.42033         0.25514
C          8.54793        20.61706         0.72479
C          7.30703        21.27993         0.73917
C          8.55687        23.45115         1.13826
C          7.30567        22.68434         1.16407
C          8.51014        24.87762         1.21561
C          7.27509        25.60897         1.18797
C          8.54133        27.75382         1.02240
C          7.30019        27.05666         1.14050
C          8.54208        29.19418         0.96053
C          7.30885        29.88949         1.00630
C          8.56909        32.08517         0.77782
C          7.29848        31.38773         1.17896
C          8.54799        33.46177         0.56073
C          7.31736        34.17528         0.32220
C          8.56378        36.26397        -0.24984
C          7.34974        35.56120        -0.10527
C          8.60468        37.55403        -0.87679
C          7.39712        38.20309        -1.19046
C         11.11075         3.44789         0.09160
C          9.88442         4.13460         0.25466
C         11.08963         6.27177        -0.07063
C          9.90564         5.57051         0.13830
C         11.07769         7.73484        -0.32934
C          9.81430         8.50797        -0.12405
C         11.07867        10.64322        -0.29296
C          9.82471         9.98438        -0.06278
C         11.03912        12.06658        -0.47299
C          9.84766        12.79873        -0.38498
C         11.04327        14.95865        -0.55533
C          9.84029        14.25550        -0.47909
C         11.09557        16.43264        -0.52644
C          9.78407        17.17852        -0.36525
C         11.03223        19.17175         0.43170
C          9.83938        18.51655         0.23070
C         11.02954        20.50435         1.16319
C          9.77063        21.31226         0.91063
C         11.04820        23.41411         1.22135
C          9.78825        22.72496         1.04058
C         10.99814        24.85959         1.48644
C          9.74222        25.61189         1.24615
C         11.04769        27.70530         0.87339
C          9.76125        27.00245         1.09473
C         11.05127        29.21880         0.74197
C          9.77661        29.94181         0.89840
C         11.06452        32.05340         0.77238
C          9.80125        31.35072         0.84604
C         11.09859        33.47238         0.64455
C          9.81878        34.21470         0.65308
C         11.10031        36.38203        -0.02640
C          9.80748        35.69589         0.28921
C         11.08254        37.55583        -0.93131
C          9.85016        38.15839        -1.22228
C         13.56871         3.47154        -0.22163
C         12.33656         4.14439        -0.08992
C         13.54844         6.32340        -0.22002
C         12.33493         5.58698        -0.14292
C         13.53586         7.76707        -0.19277
C         12.34687         8.48599        -0.27317
C         13.57633        10.64042        -0.31883
C         12.30726         9.92302        -0.29869
C         13.57910        12.03950        -0.49018
C         12.31402        12.73847        -0.76212
C         13.56432        14.90732        -0.29598
C         12.30836        14.25307        -0.74977
C         13.55523        16.35354         0.07244
C         12.30689        17.13466        -0.08519
C         13.52397        19.07529         0.89438
C         12.28114        18.46028         0.28072
C         13.49658        20.59364         0.87051
C         12.32185        21.28770         1.00738
C         13.52267        23.47842         1.26737
C         12.28518        22.74035         1.20014
C         13.56522        24.87412         1.26083
C         12.32814        25.62733         1.48511
C         13.53799        27.75062         1.08618
C         12.33074        27.05989         1.17049
C         13.56317        29.20294         1.03462
C         12.32823        29.93182         0.95301
C         13.53567        32.09903         1.07063
C         12.28659        31.33305         0.93220
C         13.56009        33.46068         0.51472
C         12.32495        34.14815         0.43027
C         13.57175        36.06681        -0.63624
C         12.38219        35.58584         0.08523
C         13.52169        37.32155        -1.32563
C         12.29151        38.03560        -1.45129
C         15.98957         3.45176        -0.56090
C         14.80283         4.17084        -0.35046
C         15.99142         6.36088        -0.53548
C         14.79635         5.62796        -0.31481
C         16.03044         7.77923        -0.50298
C         14.83341         8.48168         0.09250
C         16.04727        10.64638        -0.28547
C         14.80882         9.94994        -0.21973
C         16.04066        12.05686        -0.34779
C         14.80917        12.77063        -0.47826
C         16.07018        14.94073        -0.61949
C         14.82197        14.18184        -0.51087
C         16.06036        16.45637        -0.41670
C         14.81469        17.12828         0.02743
C         16.04802        19.21900         0.18841
C         14.79577        18.44603         0.34421
C         16.05075        20.66736         0.55187
C         14.79492        21.26789         1.09262
C         16.07145        23.47319         1.07253
C         14.80555        22.75119         1.30832
C         16.03537        24.88592         1.01235
C         14.79613        25.60780         1.11977
C         16.03825        27.74333         1.15502
C         14.79400        27.02745         1.11849
C         16.05767        29.19889         1.23798
C         14.80648        29.87514         1.13420
C         16.09369        32.01415         0.78287
C         14.84245        31.34319         1.18721
C         16.02802        33.31884         0.20953
C         14.78103        34.02899         0.08226
C         15.94465        35.82415        -1.19279
C         14.75814        35.31037        -0.58791
C         15.89633        37.06964        -1.91085
C         14.68223        37.79138        -1.97111
C         18.49743         3.45154        -1.14383
C         17.28914         4.10596        -0.60369
C         18.39560         6.31140        -1.31980
C         17.26787         5.63615        -0.63618
C         18.38373         7.84162        -1.32205
C         17.21512         8.51282        -0.72445
C         18.53464        10.59433        -0.65034
C         17.29370         9.91308        -0.47374
C         18.64064        12.01129        -0.27954
C         17.27843        12.81303        -0.14047
C         18.55591        14.94053        -0.31445
C         17.33689        14.24322        -0.38883
C         18.56190        16.38675        -0.18451
C         17.34470        17.11390        -0.10221
C         18.55053        19.20477         0.36078
C         17.33615        18.49392         0.16352
C         18.52477        20.61363         0.73069
C         17.33963        21.33038         0.85943
C         18.52246        23.51370         0.96579
C         17.30189        22.77067         1.03643
C         18.49600        24.90294         0.83750
C         17.25971        25.60566         0.90904
C         18.47659        27.65562         1.55703
C         17.24241        27.02289         1.07027
C         18.45559        29.16950         1.85235
C         17.27254        29.94338         1.39846
C         18.53597        32.12783         0.81041
C         17.31687        31.34493         1.02914
C         18.48196        33.29354        -0.02699
C         17.22011        33.89763        -0.32081
C         18.36148        35.67559        -1.62505
C         17.17317        35.12976        -1.05086
C         18.29073        36.86855        -2.41855
C         17.06263        37.54797        -2.54762
C         19.62964         4.15437        -1.43142
C         20.80446         6.34485        -1.75247
C         19.67114         5.59903        -1.46019
C         20.80919         7.76370        -1.71691
C         19.68108         8.52556        -1.41659
C         20.88098        10.72669        -1.35135
C         19.70774         9.94755        -1.13751
C         20.92746        12.09665        -1.14213
C         19.81985        12.80618        -0.61673
C         21.00872        14.98779        -0.38051
C         19.80311        14.22184        -0.40744
C         21.00853        16.34835        -0.19171
C         19.79192        17.09819        -0.06122
C         21.01891        19.24893         0.32888
C         19.78166        18.50614         0.20250
C         21.04720        20.54722         0.71100
C         19.81179        21.27869         1.03291
C         21.04144        23.58971         0.86563
C         19.81152        22.80951         1.12704
C         21.01054        24.90582         0.61440
C         19.73991        25.71012         0.53561
C         20.91734        27.57522         1.80140
C         19.76987        26.98099         1.36561
C         20.90882        28.92892         2.27845
C         19.79166        29.70598         2.16809
C         20.95309        32.56828         1.07913
C         19.78256        31.89174         1.43359
C         20.91886        33.53126         0.07532
C         19.68693        33.93512        -0.46246
C         20.76571        35.58390        -2.01220
C         19.62172        35.06059        -1.38579
C         20.68276        36.71397        -2.84203
C         19.47525        37.36374        -3.03279
O         14.92652        21.79930         2.44404
O         11.07099        28.35803        -0.46138
O          1.75415        35.56223        -2.07744
O         11.95424        36.53277         1.14120
O         13.46220        15.33796         1.14013
O         11.64933        25.26766         2.74155
O         19.89571        31.04485         2.54047
O          1.59499        15.64137        -3.18235
O         10.18465         8.05109        -1.47334
O          2.76984        31.85129         1.87042
O          4.84944        19.45159        -2.12196
O          4.05884        15.60966        -2.65029
O         18.05152        12.35153         1.00383
O         19.86094        21.97478         2.32772
O          8.97407         7.11000         1.74812
O         15.92543        20.27273        -0.85909
O         17.61440         4.93921         0.59171
O         18.00762         7.05146        -2.51217
O         12.38139        13.52852        -2.01356
O          1.66283         6.52521         2.37496
O          7.31585         9.37388         1.76292
O         16.03278        15.89386        -1.76673
O          2.58781        27.52023         2.44733
O         10.43537        17.07391        -1.67839
O         14.20012        31.94208         2.37321
O          2.87824         8.60225         1.88230
O         18.17919        28.16869         2.90000
O          7.77639        18.47825         1.64212
O          6.45924        22.89991         2.34603
O          9.72116        35.26830         1.68122
O         19.60594        26.17023        -0.85218
H         19.54418        25.37702        -1.42486
O          7.07738        14.50592         1.39930
H          6.28939        13.98351         1.66186
O         13.49365        18.72652         2.30920
H         12.65186        19.09278         2.68050
O         10.99917        20.12997         2.59054
H         10.93698        20.95662         3.11649
O          2.69440        21.99039        -2.19416
H          3.00560        21.19249        -2.67552
O          7.24100        31.58176         2.64432
H          7.28043        32.54690         2.81816
O          6.17184         7.70700        -1.25618
H          5.42245         7.15500        -1.56266
O          2.65577        29.81791        -1.13151
H          2.49614        28.89843        -1.43245
O          4.97668        26.88955         3.02296
H          4.06407        26.87453         3.39877
O         15.01700         8.39617         1.55644
H         15.12753         7.44752         1.78279
H          1.23223         2.68262         2.11839
H         -0.78299         3.73586         1.41851
H         -0.81874         5.86215         0.18987
H         -1.01839         7.92014        -0.43620
H         -0.78365        10.09306        -1.53663
H         -0.66445        11.81725        -2.27571
H         -0.49343        14.08035        -3.24481
H         -0.63989        16.89808        -2.58705
H         -0.84341        19.12496        -1.53260
H         -0.90546        20.83138        -0.45905
H         -1.00359        23.17711         0.18360
H         -1.05899        25.08988         0.36884
H         -1.12663        27.51228         0.37400
H         -1.09017        29.42359         0.20749
H         -1.05624        31.80355        -0.24697
H         -1.02958        33.80043         0.12658
H         -0.99595        36.20164        -0.33479
H          0.32986        38.32764        -0.97322
H          3.68552         2.49824         1.51369
H          2.51415        39.41642        -1.29306
H          6.18515         2.39784         1.07078
H          4.96357        39.30861        -1.51106
H          8.66393         2.37819         0.64470
H          7.42035        39.21361        -1.62317
H         11.12736         2.34917         0.14886
H          9.83521        39.09407        -1.80018
H         13.58436         2.37141        -0.21374
H         12.27769        38.94355        -2.07230
H         15.93289         2.37064        -0.75796
H         14.64671        38.74085        -2.52477
H         18.48781         2.35691        -1.25346
H         17.01781        38.48227        -3.12645
H         20.53755         3.61391        -1.73995
H         21.75717         5.82583        -1.93360
H         21.77898         8.26389        -1.84908
H         21.77833        10.23465        -1.75028
H         21.85004        12.63801        -1.39434
H         21.97289        14.46614        -0.45946
H         21.97625        16.86330        -0.13099
H         21.97184        18.73989         0.13281
H         22.01242        21.05248         0.85229
H         22.00854        23.06841         0.91543
H         21.95186        25.43455         0.40178
H         21.88572        27.06396         1.71591
H         21.84768        29.38610         2.61525
H         21.88817        32.33227         1.60244
H         21.84939        34.03320        -0.21906
H         21.74481        35.10734        -1.86876
H         21.59362        37.09433        -3.32521
H         19.41970        38.26820        -3.65507
