         252
 CSIRO Nanostructure Databank - Neutral Graphene Oxide Data Set
C         30.29517        31.78530         0.26472
C         30.43721        32.98844         0.54063
C         30.43695        36.13405         0.90356
C         30.42465        37.37725         0.86554
C         30.51993        40.55716         0.62087
C         30.43640        41.79939         0.46094
C         32.72293        29.08642        -0.54697
C         31.59186        29.58764        -0.42399
C         32.71965        31.65337         0.30792
C         31.43870        31.08392        -0.44720
C         32.79382        33.14203         0.47011
C         31.56144        33.87070         0.67054
C         32.79827        36.01285         0.75628
C         31.55616        35.25196         0.80770
C         32.78015        37.42146         0.72438
C         31.56415        38.23816         0.72398
C         32.87675        40.44434         0.51108
C         31.57935        39.62300         0.63104
C         32.80636        41.72069        -0.34893
C         31.38012        42.42224        -0.56001
C         32.72086        44.35037        -0.98683
C         31.68578        43.89271        -0.50007
C         35.54636        27.51476        -0.69813
C         35.21536        28.78861        -0.17606
C         34.04033        29.45838        -0.13424
C         35.30586        31.59243         0.39680
C         34.00123        30.86650         0.39612
C         35.28562        33.05802         0.36040
C         34.02090        33.80177         0.48515
C         35.25128        35.92652         0.45193
C         34.04261        35.25547         0.60207
C         35.32276        37.38420         0.56968
C         34.05024        38.16594         0.71717
C         35.25594        40.12448        -0.47278
C         34.01314        39.53891         0.10247
C         35.29683        41.58206        -0.94382
C         33.94998        42.30532        -0.78865
C         35.21333        44.46333        -0.65071
C         34.04644        43.77649        -1.32562
C         35.41571        45.82701        -0.48904
C         37.86396        27.28859        -0.33205
C         36.59257        26.90451        -0.97773
C         37.77584        28.62472         0.39770
C         36.43625        29.37998         0.60903
C         37.78638        31.54732         0.30853
C         36.49265        30.88109         0.35649
C         37.79635        33.02637        -0.04802
C         36.47858        33.73078         0.21441
C         37.78805        35.92980         0.06745
C         36.48150        35.19586         0.10095
C         37.82101        37.37666         0.52430
C         36.55570        38.10304         0.15308
C         37.79146        40.19998        -0.45433
C         36.53353        39.40280        -0.21790
C         37.66277        41.59847         0.16255
C         36.47571        42.36751        -0.39065
C         37.59635        44.49199         0.29128
C         36.40538        43.73974        -0.23661
C         37.65547        45.98490         0.23326
C         36.38680        46.52783        -0.07231
C         40.42047        24.89643        -1.70962
C         39.40382        25.58647        -1.48820
C         40.38804        27.45088        -0.47313
C         39.15262        26.79919        -0.80940
C         40.35689        28.79893         0.13292
C         39.06699        29.38302         0.74508
C         40.22197        31.60065         0.83125
C         38.97023        30.87263         0.46543
C         40.18456        33.09610         0.97485
C         38.99484        33.80676         0.47805
C         40.27471        35.93093         0.33140
C         39.06061        35.18763         0.29276
C         40.28814        37.35552         0.15072
C         39.08649        38.04722         0.06237
C         40.29958        40.23421        -0.44951
C         39.07102        39.54006         0.13301
C         40.20790        41.68482        -0.02582
C         39.00870        42.32098         0.08235
C         40.17780        44.57590         0.21506
C         38.95637        43.77501         0.38090
C         40.13859        45.94813         0.40766
C         38.85763        46.63999         0.50595
C         40.07221        48.76158         0.88972
C         39.07694        48.02827         0.76704
C         42.86597        24.75700        -0.84101
C         41.80087        25.51290        -1.59914
C         42.77278        27.41198        -0.03068
C         41.61611        26.82607        -0.76009
C         42.84648        28.91311        -0.14980
C         41.51979        29.53222         0.25522
C         42.71200        31.63814         0.83170
C         41.53920        30.93000         0.66616
C         42.73086        33.07046         1.23911
C         41.44155        33.92499         1.28078
C         42.77072        36.02028         0.72754
C         41.56616        35.15232         0.36222
C         42.77948        37.43988         0.27730
C         41.55383        38.11253         0.09893
C         42.78727        40.23638        -0.13428
C         41.57447        39.52072        -0.05993
C         42.76652        41.69831        -0.14541
C         41.49526        42.43014         0.28836
C         42.67689        44.62389        -0.35603
C         41.37776        43.81935        -0.35294
C         42.65604        46.10333        -0.05719
C         41.42243        46.70765         0.57409
C         42.72710        48.79582         0.68948
C         41.42361        48.20874         1.00350
C         43.81383        25.29714        -0.25525
C         45.29548        27.27917         0.75819
C         43.98231        26.60623         0.38065
C         45.35367        28.79118         0.32265
C         44.05519        29.47763         0.57891
C         45.31606        31.66065         0.68185
C         44.03361        30.93649         0.86604
C         45.29018        33.06704         0.76754
C         44.05245        33.79696         1.14789
C         45.32378        35.96840         0.55380
C         44.06566        35.30990         1.00642
C         45.23740        37.33866        -0.01990
C         43.99864        38.13517         0.12989
C         45.28444        40.22256        -0.38561
C         44.02601        39.52383        -0.14540
C         45.22918        41.72085        -0.71286
C         43.93267        42.40758        -0.28993
C         45.11936        44.49207         0.22789
C         43.95504        43.86972        -0.18818
C         45.24703        45.99413         0.16101
C         44.00678        46.82190         0.02608
C         43.79160        48.19651         0.49820
C         47.56366        27.34467         0.08353
C         46.52898        26.66238         0.17119
C         47.76216        28.72274        -0.25811
C         46.51247        29.50394         0.06688
C         47.70327        31.77649         0.28692
C         46.51072        30.98339         0.26771
C         47.70385        33.11647         0.70186
C         46.48720        33.81379         0.73567
C         47.76385        35.82943        -0.00378
C         46.49092        35.25541         0.52302
C         47.79221        37.28235        -0.41949
C         46.49643        38.05841        -0.43590
C         47.79607        40.28913        -0.59692
C         46.48976        39.55004        -0.44880
C         47.78982        41.77904        -0.28382
C         46.43610        42.40272        -0.07541
C         48.24098        44.77689         0.66112
C         46.27204        43.62117         0.51425
C         47.71640        46.09085         0.50848
C         46.54737        46.49918         0.60810
C         50.25178        28.86279        -0.81238
C         48.85924        29.19988        -0.91656
C         50.20312        31.69084         0.24744
C         48.98477        31.31965        -0.25016
C         50.23670        32.86541         1.21850
C         48.95948        33.85089         1.16412
C         50.32466        35.93276         0.32186
C         49.07821        35.13070         0.30702
C         50.35866        37.28181        -0.07959
C         49.10333        38.00408        -0.46906
C         50.40166        40.24901        -0.39346
C         49.11285        39.51375        -0.58884
C         50.39819        41.74061        -0.12112
C         49.10702        42.50210         0.05479
C         50.42948        44.45958        -0.51893
C         49.17971        44.03956        -0.02988
C         51.23238        29.60661        -0.64707
C         52.59703        31.77315         0.00612
C         51.49807        30.75629         0.26015
C         52.64100        32.86049         0.61623
C         51.55137        33.71762         1.06670
C         52.75436        35.92876         0.28304
C         51.56300        35.20713         0.74654
C         52.68564        37.14783         0.00808
C         51.59252        38.01657        -0.16328
C         52.77479        40.26741        -0.63104
C         51.66131        39.49118         0.07338
C         52.74083        41.52162        -0.65879
C         51.69774        42.45825        -0.55076
C         51.48345        43.80958        -0.78605
O         38.14017        44.04030         1.57736
O         49.97389        39.89912        -1.72026
O         45.63424        37.43027        -1.44614
O         37.12278        35.69296        -1.20735
O         51.68682        34.67855         2.10093
O         37.75776        27.34954         1.13265
O         48.72040        34.26833         2.47363
O         43.54768        33.30731         2.42920
O         34.27833        39.40870        -1.32784
O         44.82661        46.56406        -1.11690
O         39.96193        32.22405         2.14669
O         34.87928        37.93259         1.89721
O         42.92843        26.88394         1.34227
O         33.09693        30.99451         1.54810
O         48.43622        34.98440        -0.99366
O         48.78961        30.52583        -1.39463
O         42.51920        45.62316        -1.42769
O         43.95080        29.91149         1.95620
O         49.86731        42.02902         1.21400
O         43.31939        35.95469         2.08137
O         47.30504        44.01582         1.39317
O         47.82026        41.27952        -1.67473
O         41.58195        47.15989         1.96905
O         48.50648        37.44270        -1.68191
O         34.25553        43.80681        -2.73198
H         34.85397        43.05013        -2.96280
O         33.19393        40.90387         1.84403
H         32.42430        41.41062         2.18292
O         41.57239        42.62120         1.71958
H         41.30449        41.78865         2.16337
O         35.50385        41.50282        -2.38841
H         34.96229        40.74489        -2.70817
O         37.88267        40.39256        -1.87329
H         38.14243        39.54988        -2.29963
O         41.25368        34.44300         2.59695
H         41.16706        33.68171         3.21054
O         42.27534        25.86226        -2.87623
H         42.46073        25.04722        -3.38692
O         37.32247        41.44100         1.56328
H         37.48955        42.31143         2.00279
O         51.63829        30.24709         1.55100
H         51.39293        30.94487         2.20916
O         37.86779        37.37859         1.99220
H         36.95032        37.45915         2.33913
O         30.94557        42.08213        -1.84266
H         30.12523        42.57304        -2.05181
O         51.79584        39.68910         1.47391
H         52.56905        39.18315         1.80173
O         45.40453        27.28255         2.17124
H         44.50152        27.37273         2.55058
O         41.05375        43.54871        -1.74062
H         41.30883        44.34669        -2.26034
O         37.96272        33.04786        -1.51002
H         37.75523        33.97036        -1.80497
O         39.17838        39.80600         1.55766
H         38.64089        39.13126         2.04160
O         41.81800        34.62698        -0.97330
H         41.74586        35.35821        -1.62277
O         45.26103        41.84046        -2.15274
H         46.15223        41.53852        -2.45515
O         50.27562        32.36481         2.55359
H         49.71575        33.02918         3.06911
O         39.23093        29.26685         2.17582
H         39.08377        28.32392         2.41138
O         36.09297        29.22474         1.99242
H         36.32424        28.30640         2.25695
O         43.09087        29.23533        -1.54543
H         42.44278        28.74499        -2.09601
O         31.48926        31.53756        -1.77146
H         30.71746        31.19403        -2.26635
O         40.32046        40.18042        -1.90005
H         40.77635        40.98420        -2.23072
