         344
 CSIRO Nanostructure Databank - Neutral Graphene Oxide Data Set
C          1.39977         1.94815        -0.28173
C          1.37103         3.34138        -0.12006
C          2.60072         1.27574        -0.45578
C          2.55483         4.10114        -0.12596
C          1.36630         6.24672         0.35391
C          1.37832         7.61350         0.56290
C          2.55504         5.54001         0.05907
C          2.57064         8.37034         0.46333
C          1.46179        10.48560         1.18789
C          1.47940        11.88175         1.47470
C          2.56342         9.79641         0.71494
C          2.65628        12.61538         1.48387
C          1.61934        14.71951         2.28652
C          1.65179        16.09047         2.54188
C          2.75324        14.01001         1.85095
C          2.82121        16.83993         2.32679
C          2.83787        18.26171         2.50047
C          3.82798         1.98659        -0.46341
C          3.80678         3.42178        -0.29049
C          5.04647         1.31951        -0.71569
C          5.01132         4.15354        -0.32848
C          3.77370         6.27590        -0.04724
C          3.78408         7.69559         0.13020
C          5.00082         5.56635        -0.28314
C          5.03624         8.42004         0.03298
C          3.77194        10.61090         0.32338
C          3.89749        11.86882         1.16321
C          5.07185         9.84188         0.24207
C          5.18785        12.62309         1.07409
C          4.01331        14.72539         1.71285
C          4.02012        16.16988         1.90647
C          5.17626        14.07152         1.30701
C          5.15663        16.93383         1.61829
C          3.95942        18.99827         2.22288
C          5.15396        18.36377         1.74477
C          6.28329         1.99581        -0.71201
C          6.33007         3.42495        -0.22527
C          7.47404         1.35402        -1.02966
C          7.48932         4.20383        -0.80049
C          6.22092         6.29902        -0.48434
C          6.21409         7.71051        -0.30680
C          7.42025         5.59945        -0.83901
C          7.50216         8.41672        -0.35964
C          6.25725        10.58418         0.14736
C          6.32458        11.99808         0.36355
C          7.53519         9.90851        -0.12479
C          7.48484        12.73226         0.06719
C          6.43895        14.78733         1.08483
C          6.42561        16.28043         1.24212
C          7.53625        14.15316         0.30450
C          7.32685        17.11721         0.35988
C          6.32468        19.10226         1.49280
C          7.49771        18.50334         0.95563
C          8.71888         2.06319        -1.12882
C          8.69634         3.51304        -1.10122
C          9.91853         1.38969        -1.31811
C          9.91363         4.23188        -1.30576
C          8.57270         6.35592        -1.44988
C          8.66430         7.78881        -1.01375
C          9.89815         5.65080        -1.34256
C          9.81325         8.50426        -1.22056
C          8.65523        10.69833        -0.65505
C          8.62888        12.08129        -0.55653
C          9.74248         9.99651        -1.43048
C          9.80227        12.86898        -0.87464
C          8.65006        14.89607        -0.06247
C          8.64663        16.42942        -0.11106
C          9.81656        14.22428        -0.60733
C          9.94099        17.02826         0.49741
C          8.68631        19.19936         0.83092
C          9.91919        18.56608         0.44412
C         11.17087         2.08335        -1.45925
C         11.15901         3.54120        -1.42692
C         12.35274         1.40216        -1.63185
C         12.36501         4.26348        -1.45928
C         11.09453         6.38483        -1.36907
C         11.08118         7.82759        -1.38546
C         12.35276         5.69490        -1.34919
C         12.27556         8.55770        -1.32466
C         11.06260        10.70862        -1.33740
C         10.99274        12.20308        -1.54945
C         12.25342        10.02182        -1.31707
C         12.31858        12.90937        -1.37568
C         11.15229        14.93530        -0.49326
C         11.03018        16.44657        -0.39103
C         12.32455        14.29260        -1.25967
C         11.89270        17.34236        -0.90515
C         11.03506        19.31043         0.15501
C         12.31145        18.55543        -0.11678
C         13.66296         2.09456        -1.86966
C         13.63018         3.57454        -1.54074
C         14.80786         1.38588        -1.19317
C         14.81210         4.26742        -1.39089
C         13.55097         6.42380        -1.20373
C         13.52633         7.86302        -1.17029
C         14.81690         5.70769        -1.15076
C         14.71310         8.59336        -0.92377
C         13.52267        10.74920        -1.31056
C         13.53921        12.13479        -1.44030
C         14.74986        10.01469        -1.02177
C         14.87247        12.82918        -1.62441
C         13.61363        14.97756        -1.30738
C         13.71357        16.37218        -1.45156
C         14.84117        14.28633        -1.24575
C         14.83865        17.13296        -1.11700
C         13.55722        19.24925        -0.62837
C         14.75618        18.59074        -0.91737
C         15.99653         2.04210        -0.91724
C         16.07841         3.50282        -1.24480
C         17.17314         1.35936        -0.53153
C         17.33442         4.25671        -0.96628
C         15.97690         6.39746        -0.85482
C         15.88022         7.81728        -0.35644
C         17.34844         5.78924        -1.06823
C         17.18473         8.55528        -0.37505
C         15.94871        10.72877        -0.76058
C         16.05572        12.12069        -1.00454
C         17.10642        10.02609        -0.08684
C         17.25271        12.84489        -0.83558
C         16.04030        15.01410        -1.15034
C         16.04917        16.41603        -1.02866
C         17.34601        14.28054        -1.30872
C         17.33513        17.16123        -1.24791
C         16.01359        19.28364        -0.86451
C         17.25749        18.62277        -0.87160
C         18.32255         2.06384         0.02717
C         18.36808         3.59292        -0.10563
C         19.60910         1.41611         0.28068
C         19.63423         4.29816         0.14156
C         18.43115         6.43423        -0.23826
C         18.37486         7.85600        -0.12909
C         19.59080         5.73167         0.15378
C         19.55263         8.55486         0.32760
C         18.42126        10.72828        -0.34055
C         18.44994        12.19889        -0.39218
C         19.67805         9.99415         0.04330
C         19.66539        12.85293        -0.18532
C         18.52868        15.04218        -0.74621
C         18.53786        16.41479        -0.73025
C         19.82286        14.28057        -0.64671
C         19.72898        17.16755        -0.42918
C         18.46006        19.29324        -0.60727
C         19.70330        18.60094        -0.43355
C         20.75801         2.13317         0.59273
C         20.76471         3.59376         0.58452
C         21.98793         1.46510         0.88473
C         21.93986         4.30702         0.96528
C         20.70855         6.43269         0.71758
C         20.63200         7.86190         0.83785
C         21.89171         5.71689         1.05242
C         21.73449         8.60187         1.48488
C         20.85037        10.77684         0.46686
C         20.81905        12.14970         0.30758
C         21.96964        10.10450         1.21035
C         22.02388        12.90716         0.81889
C         20.94668        15.04866        -0.00207
C         20.93521        16.48232        -0.09942
C         22.09469        14.35800         0.38914
C         22.10423        17.22194         0.19579
C         20.90948        19.30837        -0.23896
C         22.13500        18.64065         0.01736
C         23.16402         2.14388         1.21574
C         23.17208         3.60955         1.31055
C         24.36160         1.41986         1.44951
C         24.30756         4.28336         1.70612
C         23.01765         6.43678         1.60942
C         22.83152         7.74751         1.92735
C         24.34464         5.78025         1.97422
C         24.76272         8.83558         1.85869
C         23.31871        10.76319         1.13717
C         23.28536        12.11638         0.43336
C         24.58228        10.18544         1.33844
C         24.55279        12.91953         0.61159
C         23.32317        15.04348         0.55629
C         23.31165        16.50384         0.58782
C         24.56631        14.33138         0.58098
C         24.67113        17.25410         0.46049
C         23.38649        19.32444        -0.05253
C         24.62239        18.65066        -0.01617
C         25.57826         2.07158         1.69047
C         25.60933         3.55628         1.98056
C         26.80588         1.40422         1.72438
C         26.72112         4.21750         1.12029
C         25.54720         6.48107         1.19830
C         25.74058         7.97921         1.44305
C         26.88914         5.72712         1.43386
C         27.07598         8.61471         1.13974
C         25.77428        10.79522         0.81197
C         25.76051        12.19174         0.50786
C         26.98188        10.03220         0.61399
C         26.95894        12.86279         0.17830
C         25.81891        15.02874         0.38487
C         25.86639        16.43763         0.21707
C         27.00672        14.26415         0.13923
C         27.05296        17.08214        -0.21458
C         25.83567        19.24555        -0.40517
C         27.05057        18.50721        -0.46903
C         28.04241         2.11742         1.55017
C         28.02233         3.47368         1.21880
C         29.30643         1.41777         1.55269
C         29.16257         4.05756         0.43967
C         28.06746         6.33589         0.67109
C         28.11063         7.74524         0.47052
C         29.19986         5.56597         0.38628
C         29.24910         8.35049        -0.07017
C         28.07539        10.60383         0.00686
C         28.11737        12.06896        -0.35494
C         29.21990         9.78948        -0.53732
C         29.43919        12.70201         0.07903
C         28.25547        14.92109        -0.17784
C         28.26103        16.33558        -0.37147
C         29.45728        14.18000        -0.28367
C         29.47953        16.99292        -0.70777
C         28.25761        19.13299        -0.82950
C         29.47126        18.40962        -0.93461
C         30.47747         2.06270         1.21347
C         30.48052         3.40241         0.73838
C         31.64829         4.07975         0.36610
C         30.41955         6.18326        -0.03723
C         30.42773         7.59531        -0.30834
C         31.61038         5.40187        -0.07788
C         31.61830         8.29756        -0.68908
C         30.56293        10.50511        -0.47452
C         30.63784        11.90369        -0.40266
C         31.69531         9.67432        -0.72160
C         31.83943        12.63816        -0.61662
C         30.67842        14.81843        -0.58020
C         30.69748        16.25242        -0.81637
C         31.86227        14.01766        -0.68205
C         31.87738        16.94825        -1.15117
C         30.68601        19.05928        -1.27208
C         31.86399        18.33050        -1.37434
O         17.12831         3.67182        -2.29646
O         24.03164        17.05743         1.74474
O          7.91939         8.96554         0.95663
O         19.27109        10.18029        -1.38425
O         17.84981         2.99872         1.11168
O         21.41574         9.62911         2.49547
O         12.64067        17.03307        -2.04192
O          7.00518        15.47192         2.29086
O          4.81849        11.81273         2.28153
O         23.75985         8.39182         2.72879
O          6.59588         3.32176         1.22304
H          6.61264         4.23409         1.58346
O         29.46285        12.63181         1.53560
H         30.29674        13.04602         1.84139
O         26.29765         4.07593        -0.27222
H         27.12247         4.00104        -0.82585
O         17.70617         6.13418        -2.44050
H         17.42538         5.37054        -3.00088
O         23.20659        11.84751        -1.00408
H         22.82907        12.63824        -1.44614
O         13.93053         1.99883        -3.31959
H         14.81370         2.39772        -3.47680
O         27.65526         8.75214         2.51597
H         27.12697         9.42815         2.99462
O          6.50060        17.32078        -0.82792
H          6.86490        18.09058        -1.31464
O          3.50784        11.09980        -1.03954
H          3.32795        10.31996        -1.60616
O         25.22065         6.46188        -0.20404
H         25.44801         5.56189        -0.55718
O         16.87137        10.14445         1.35904
H         16.24483         9.42120         1.60941
O          9.30198        10.09127        -2.84213
H          9.58629        10.98832        -3.16367
O         20.28450        14.13955        -2.05258
H         19.47786        13.92877        -2.58852
O          8.78864        16.73721        -1.52474
H          8.01743        16.34649        -1.99018
O         15.55274         7.69809         1.10873
H         14.67131         7.26785         1.17011
O         15.10803        12.82753        -3.07768
H         16.00211        13.23147        -3.21923
O         28.96504         9.67053        -1.98542
H         28.84361        10.59438        -2.31968
O         17.50715        17.12202        -2.72496
H         16.82024        17.70847        -3.11028
O         28.05698        12.19853        -1.81847
H         27.13721        11.99590        -2.09401
O         10.07521        16.63535         1.87492
H         10.89005        17.07346         2.21027
O         24.60756         5.97724         3.38181
H         23.89634         5.53660         3.89123
O         21.93661        12.97247         2.26712
H         21.73881        12.07435         2.61062
O         12.70865        17.98850         1.20695
H         13.23146        18.67618         1.67276
O          8.25203         6.42405        -2.89481
H          8.89433         7.04207        -3.30682
O         25.93965         3.64432         3.38035
H         26.17297         4.58634         3.57839
O         10.71277        12.36848        -3.01040
H         11.54644        12.16374        -3.48828
O         27.25625         5.87760         2.82544
H         27.40057         6.84399         2.98691
O         28.86076         3.66125        -0.99633
H         29.03787         2.69680        -1.06042
O         17.58966        14.22565        -2.77740
H         17.59966        15.17421        -3.07174
O         11.55964        14.57925         0.88596
H         10.94807        15.06061         1.50134
H          0.45466         1.38724        -0.27558
H          0.39647         3.83183         0.00523
H          2.61152         0.18469        -0.59073
H          0.41154         5.71122         0.43912
H          0.43143         8.11577         0.80118
H          0.51925         9.95339         1.38030
H          0.52679        12.35031         1.75911
H          0.66802        14.18765         2.42489
H          0.73841        16.60156         2.87916
H          1.92101        18.75867         2.85024
H          5.02340         0.24929        -0.97350
H          3.95400        20.09038         2.35231
H          7.46777         0.27266        -1.23791
H          6.35206        20.16880         1.76444
H          9.92178         0.28991        -1.35594
H          8.70856        20.27058         1.08894
H         12.34428         0.30216        -1.67322
H         10.99430        20.41136         0.16329
H         14.73886         0.29819        -1.04181
H         13.61766        20.33755        -0.45600
H         17.18684         0.25960        -0.55548
H         16.00241        20.36232        -0.64034
H         19.67095         0.32283         0.17047
H         18.44450        20.38350        -0.45496
H         22.00335         0.36470         0.85534
H         20.90671        20.40538        -0.32362
H         24.34929         0.32485         1.33043
H         23.37854        20.39230        -0.31844
H         26.83294         0.30349         1.69415
H         25.84618        20.30767        -0.69201
H         29.32840         0.36723         1.87512
H         28.26324        20.21543        -1.02692
H         31.43884         1.53453         1.30335
H         32.61738         3.56374         0.44125
H         32.55651         5.87254        -0.37649
H         32.53757         7.72787        -0.88363
H         32.67777        10.13404        -0.90288
H         32.77883        12.09720        -0.80108
H         32.82455        14.50716        -0.88431
H         32.83083        16.41137        -1.24453
H         30.68631        20.14410        -1.45045
H         32.80136        18.84177        -1.63519
