         346
 CSIRO Nanostructure Databank - Neutral Graphene Oxide Data Set
C          2.03265         3.54811        -1.55499
C          0.87356         4.24958        -2.02933
C          1.43755         6.20802        -0.59185
C          0.60140         5.52697        -1.65505
C          1.43192         7.73487        -0.66545
C          0.26635         8.41694        -1.07490
C          1.31113        10.58213        -0.67228
C          0.20192         9.79832        -1.07078
C          1.24912        12.02674        -0.66531
C          0.06048        12.73470        -1.01382
C          1.17570        14.89689        -0.73895
C          0.02378        14.10797        -1.03156
C          1.12674        16.33046        -0.78140
C         -0.09177        17.06192        -0.97993
C          1.06821        19.22251        -0.88196
C         -0.12377        18.43359        -0.99130
C          1.04085        20.63812        -0.81105
C         -0.15399        21.40686        -0.68606
C          1.10361        23.49251        -0.28742
C         -0.12664        22.77155        -0.51055
C          1.11300        24.93787        -0.00826
C         -0.05860        25.71084        -0.15688
C          1.18516        27.77355         0.18153
C         -0.02096        27.09738        -0.10023
C          1.27685        29.21304         0.02305
C          4.25936         3.60322        -0.52345
C          3.02650         4.21431        -0.85538
C          3.77842         6.32621         0.37833
C          2.90029         5.71554        -0.70501
C          3.69418         7.81995         0.42868
C          2.54047         8.48559        -0.24010
C          3.65634        10.66920         0.13527
C          2.49962         9.90815        -0.25679
C          3.58380        12.06547         0.05934
C          2.40400        12.76994        -0.32354
C          3.55644        14.98521        -0.12035
C          2.39268        14.22317        -0.38673
C          3.54548        16.39089        -0.30640
C          2.32673        17.07413        -0.63105
C          3.54919        19.19071        -0.78340
C          2.31838        18.50439        -0.76877
C          3.60708        20.65349        -0.94937
C          2.29606        21.40999        -0.86052
C          3.57134        23.36642         0.21225
C          2.30093        22.81025        -0.39772
C          3.59377        24.87730         0.34680
C          2.33195        25.60144         0.30505
C          3.56101        27.70433         0.92695
C          2.34170        27.00994         0.46695
C          3.63727        29.20684         0.70777
C          2.45037        29.87785         0.15345
C          6.53191         3.68540         0.36483
C          5.28976         4.28564         0.13565
C          6.26155         6.46436         1.00915
C          5.02356         5.58388         0.86588
C          6.08764         7.91040         1.34899
C          4.88506         8.61358         0.79742
C          5.98263        10.78158         1.12414
C          4.87365         9.97589         0.60630
C          5.75122        12.12346         1.19473
C          4.85831        12.83334         0.22742
C          6.07705        15.00169         0.19411
C          4.75427        14.33601         0.55631
C          6.04332        16.43699        -0.04951
C          4.76696        17.14119        -0.25946
C          6.01080        19.22178        -1.06823
C          4.77066        18.48712        -0.60731
C          6.02355        20.63650        -0.55585
C          4.87005        21.34177        -0.56223
C          6.07317        23.44821         0.19868
C          4.84515        22.85145        -0.46549
C          6.05238        24.76081         0.56489
C          4.79530        25.50728         0.57443
C          6.12022        27.64591         0.83858
C          4.83765        26.90114         1.16759
C          6.14424        29.07829         0.68094
C          4.95583        29.82587         0.59118
C          8.76287         3.73521         1.34595
C          7.59151         4.40019         0.98075
C          8.61178         6.55286         1.88688
C          7.46480         5.84459         1.19224
C          8.64438         8.05998         1.70807
C          7.29978         8.71064         1.79381
C          8.56653        11.00450         1.69614
C          7.22598        10.21396         1.71823
C          8.61394        12.31836         0.99132
C          7.55993        13.18709         1.06287
C          8.50430        14.92119        -0.36520
C          7.36826        14.38932         0.27223
C          8.37433        16.22632        -1.10292
C          7.31491        17.09560        -0.47754
C          8.53031        19.16743        -0.81203
C          7.31035        18.51361        -0.86004
C          8.57320        20.55473        -0.42278
C          7.29649        21.19264        -0.05465
C          8.60197        23.28459         0.50813
C          7.29393        22.62853         0.39194
C          8.59531        24.71623         0.71195
C          7.30493        25.42853         1.10554
C          8.54737        27.60873         0.66658
C          7.31757        26.92579         0.81873
C          8.60783        29.03256         0.63378
C          7.40336        29.74529         0.61368
C         11.15109         3.76380         1.99452
C          9.94072         4.44271         1.72620
C         11.13659         6.57313         1.73231
C          9.93373         5.86225         1.70937
C         11.11653         8.02674         1.29676
C          9.81797         8.74925         1.65584
C         11.14351        10.96928         1.39098
C          9.89544        10.23891         1.95559
C         11.09536        12.22686         0.58538
C          9.76213        12.73721         0.14541
C         11.00964        14.78539        -0.82906
C          9.72770        14.11790        -0.50643
C         10.97895        16.18360        -1.32645
C          9.70101        16.97652        -1.33461
C         10.98004        19.12100        -0.95674
C          9.77776        18.44358        -1.01915
C         11.03660        20.51449        -0.51319
C          9.78362        21.18993        -0.15678
C         11.07312        23.19377         0.64213
C          9.77582        22.55349         0.32956
C         11.06534        24.66788         1.02747
C          9.78276        25.39006         0.68611
C         11.10282        27.58417         0.58166
C          9.79145        26.85104         0.51342
C         11.08540        29.04420         0.81479
C          9.88774        29.71375         0.73298
C         13.56894         3.75253         2.64549
C         12.32540         4.48081         2.19429
C         13.63677         6.61177         1.99526
C         12.34359         5.88278         1.97631
C         13.68671         7.99085         1.48251
C         12.42061         8.75910         1.63112
C         13.74106        10.94285         1.01634
C         12.45944        10.23328         1.46624
C         13.49592        12.05483        -0.00519
C         12.31671        12.73946        -0.10551
C         13.46285        14.78466        -0.88950
C         12.24241        14.10850        -0.67255
C         13.54238        16.21579        -1.25365
C         12.26719        16.95010        -1.46218
C         13.53674        19.12598        -1.09211
C         12.23313        18.48117        -1.54716
C         13.48929        20.63625        -1.13430
C         12.24406        21.19309        -0.46721
C         13.56379        23.34891        -0.00831
C         12.34221        22.52478         0.17184
C         13.57952        24.73097         0.41454
C         12.34162        25.42322         0.71324
C         13.52494        27.53454         1.21430
C         12.32221        26.79848         0.86059
C         13.51497        29.00841         1.25482
C         12.35317        29.70224         1.08015
C         15.79958         3.50454         1.55798
C         14.81235         4.31147         1.99944
C         16.08044         6.42189         1.30846
C         14.92850         5.78990         1.96975
C         16.07106         7.75598         0.95828
C         14.87911         8.58896         1.10338
C         16.02032        10.51826         0.05734
C         14.90001         9.98884         0.64825
C         15.97532        11.81757        -0.67269
C         14.68976        12.56594        -0.73348
C         15.99926        14.79553        -1.12805
C         14.70403        14.02918        -1.06661
C         15.99130        16.27905        -0.94489
C         14.79862        16.97262        -1.00953
C         15.99438        19.14908        -0.78100
C         14.74013        18.43594        -0.94415
C         16.00096        20.59931        -0.76383
C         14.75834        21.30981        -0.68356
C         15.94577        23.50941        -0.75403
C         14.73610        22.70509        -0.45175
C         15.96242        24.95427        -0.31133
C         14.77699        25.46763         0.38369
C         16.06654        27.62480         0.79169
C         14.86326        26.79645         0.97708
C         16.05705        28.98173         1.18893
C         14.80159        29.65067         1.72832
C         18.02975         3.20212         0.37067
C         17.11065         4.04724         1.14968
C         18.30047         6.07021         0.12935
C         17.25520         5.55984         1.03278
C         18.35007         7.44804        -0.15666
C         17.32926         8.35265         0.42904
C         18.37573        10.27895        -0.93709
C         17.31443         9.79430        -0.00883
C         18.39692        11.64310        -1.33425
C         17.29240        12.54555        -0.85295
C         18.47831        14.87976        -1.31207
C         17.29433        14.04551        -0.95062
C         18.45787        16.27312        -0.91177
C         17.25729        16.96800        -0.79582
C         18.44563        19.13151        -0.81272
C         17.23823        18.43342        -0.74031
C         18.45001        20.58382        -0.94366
C         17.20627        21.31852        -0.83437
C         18.47749        23.49787        -0.44665
C         17.26616        22.81122        -1.09003
C         18.47405        24.91609        -0.24607
C         17.25113        25.64862        -0.14567
C         18.47222        27.74249         0.34443
C         17.26158        27.01184         0.30611
C         18.48164        29.08075         0.81972
C         17.25347        29.69787         1.19065
C         19.07711         3.74182        -0.29629
C         20.28017         5.70276        -1.22553
C         19.24240         5.17565        -0.43071
C         20.34095         7.05978        -1.49194
C         19.36493         7.95756        -0.99532
C         20.36476         9.82654        -2.27580
C         19.37604         9.37254        -1.37956
C         20.36785        11.13635        -2.71419
C         19.40541        12.03773        -2.23576
C         20.78784        15.20150        -2.13787
C         19.56211        14.43783        -2.03516
C         20.93739        16.33167        -1.42130
C         19.78687        16.95725        -0.66736
C         20.86010        19.16824        -0.21685
C         19.78366        18.45452        -1.01087
C         20.83782        20.49733        -0.02691
C         19.76514        21.34338        -0.59143
C         20.84692        23.47201         0.13356
C         19.67668        22.78997        -0.25511
C         20.87203        24.86760         0.18433
C         19.71131        25.60447        -0.03591
C         20.97198        27.81246         0.24527
C         19.72367        27.11134        -0.20888
C         20.93607        29.10011         0.72385
C         19.71759        29.76891         0.96817
O         11.06657         8.03758        -0.12499
O         17.53167        13.37914         0.34468
O         14.27641        26.92666         2.32122
O         11.23475        12.28750         2.05112
O         10.24248        16.48664        -2.60080
O         13.00275        16.44101        -2.63635
O          6.55233        12.93533         2.01529
O          6.36201         8.16951         2.79076
O         19.41756        21.08583        -1.96802
O         12.55490         9.62842         2.81034
O          9.53120        12.82728        -1.27358
O          7.04108        17.03508         0.95266
O          7.15920        21.53442         1.37442
O         11.89296        22.43624         1.59827
O         14.45987         6.42393         3.20533
O          3.11738         6.94668         1.52136
O          7.72481        10.92689         2.87691
O         17.86068         9.40641         1.30466
O         15.12401        11.72529        -1.86739
O         19.53273        13.29664        -2.81043
O         15.65281        24.56385        -1.72874
O          3.33049        28.61172         2.05677
O         17.76740         4.83967         2.20158
O         15.33861        14.35839        -2.36054
O          3.01952        21.20858        -2.18272
O          5.53979        12.73210        -1.07028
H          4.90429        12.99140        -1.77088
O         13.70141         3.89353         4.06984
H         13.92595         4.83866         4.24335
O          4.49764        14.54373         1.96699
H          5.29051        14.23951         2.46929
O          4.88626        26.66086         2.61847
H          4.49988        27.47019         3.03467
O         19.68132        27.31200        -1.68097
H         19.61394        28.27810        -1.83751
O          4.73717         5.14114         2.22367
H          4.30269         5.89732         2.68209
O         11.04747        24.69725         2.49467
H         11.49776        23.87436         2.79934
O          5.87299        19.31938        -2.52941
H          5.06264        19.83788        -2.72691
O         17.47260        22.93725        -2.52280
H         16.98408        23.74719        -2.80484
O         14.23681        11.66462         2.17810
H         13.98361        11.13477         2.96879
O          3.58382        22.83125         1.56957
H          2.93615        23.33333         2.10717
O         13.38640        21.06002        -2.54147
H         12.85068        20.36617        -3.01157
O          3.44272         6.26609        -1.94360
H          2.94857         5.86406        -2.68981
O         14.82330        29.55451         3.16590
H         14.72718        28.59798         3.38391
O         10.52607        27.22206        -0.73095
O         12.10717        18.78637        -2.97812
H         12.52832        18.02876        -3.45566
O         20.04533        16.84247         0.76136
H         19.90768        15.90714         1.02210
O          0.85986         5.81207         0.67018
H          1.39861         6.23820         1.37974
O         20.11323        18.54469        -2.42200
H         20.01846        19.49528        -2.68014
O         10.08659        10.26060         3.38611
H         10.34462        11.17403         3.63685
O          4.84549        23.32304        -1.84104
H          4.16887        22.78887        -2.32632
O          7.27683        25.29513         2.55399
H          6.42755        25.69943         2.86517
O          7.81357        15.90547        -2.40642
H          8.58064        15.71181        -2.99875
O          8.32446         6.35247         3.31236
H          7.52089         6.89268         3.51842
H          2.14614         2.47902        -1.78578
H          0.19385         3.72376        -2.71614
H         -0.31603         6.01037        -2.01989
H         -0.62303         7.84774        -1.37642
H         -0.73326        10.28071        -1.38318
H         -0.85375        12.18227        -1.26706
H         -0.91771        14.60309        -1.30395
H         -1.03959        16.51759        -1.08825
H         -1.09229        18.93796        -1.11325
H         -1.12891        20.90151        -0.73102
H         -1.08369        23.30447        -0.43654
H         -1.01420        25.22228        -0.38792
H         -0.93320        27.67890        -0.29490
H          0.38024        29.74271        -0.33185
H          4.43380         2.56286        -0.84195
H          2.52674        30.94243        -0.11236
H          6.70646         2.64996         0.03294
H          5.01412        30.90346         0.37865
H          8.80909         2.63917         1.25283
H          7.41814        30.84421         0.56955
H         11.15751         2.66577         2.06146
H          9.87352        30.80930         0.84031
H         13.47429         2.65977         2.42353
H         12.35580        30.79954         1.17349
H         15.66583         2.41103         1.56523
H         14.81344        30.73935         1.47004
H         17.85122         2.11665         0.35343
H         17.26149        30.74324         1.53279
H         19.78039         3.09373        -0.83991
H         21.03593         5.02576        -1.64830
H         21.16520         7.42046        -2.11915
H         21.14155         9.15134        -2.65170
H         21.12142        11.49132        -3.42824
H         21.61496        14.77853        -2.72450
H         21.90057        16.86158        -1.40688
H         21.67613        18.57006         0.21381
H         21.61099        20.97417         0.59290
H         21.78251        22.91867         0.28809
H         21.82807        25.37117         0.37985
H         21.94580        27.35184         0.02668
H         21.87950        29.62408         0.93729
H         19.72087        30.80273         1.33964
