         480
 CSIRO Nanostructure Databank - Neutral Graphene Oxide Data Set
C         38.13656        50.12444        -2.33699
C         37.32208        50.85022        -3.14934
C         38.05833        52.98486        -2.20946
C         37.28949        52.28857        -3.08983
C         40.00284        48.68822        -0.21851
C         40.05985        50.08832        -0.65168
C         38.85842        50.77073        -1.23524
C         39.97030        52.96601        -0.40446
C         38.80213        52.29174        -1.15275
C         40.07172        54.46654        -0.59659
C         42.47020        48.59011        -0.24213
C         41.11902        47.97831         0.06304
C         42.39886        50.08139         0.05777
C         41.21852        50.79154        -0.50123
C         42.51552        53.04624        -0.34413
C         41.27493        52.26630        -0.89205
C         42.57448        54.48998        -0.98184
C         41.21888        55.13737        -0.77494
C         44.96917        45.79807         0.46223
C         43.76856        46.47639         0.30097
C         44.94148        48.58422         0.39931
C         43.72898        47.88257         0.25310
C         44.94042        50.06025         0.47138
C         43.67908        50.83599         0.21521
C         45.02292        52.61528        -0.78377
C         43.75337        52.16451        -0.41950
C         45.04348        54.84121        -0.69751
C         43.74874        55.31115        -0.41558
C         44.86533        57.10905         0.79449
C         43.69285        56.46619         0.38969
C         47.52510        44.34233         0.58293
C         47.47509        45.76900         0.47600
C         46.20679        46.48156         0.49675
C         47.46303        48.61921         0.39074
C         46.19804        47.90487         0.46817
C         47.50212        50.02221         0.23209
C         46.24283        50.77860         0.33607
C         47.41961        52.94076        -0.04486
C         46.21729        52.11074        -0.28070
C         47.44069        54.43755         0.04299
C         46.22006        55.29440        -0.10028
C         47.40086        57.21215         0.85891
C         46.15937        56.55714         0.56201
C         47.46751        58.54839         1.35457
C         49.96771        44.28317         0.45826
C         48.71785        43.64248         0.61614
C         49.96872        45.74169         0.05671
C         48.68173        46.48123         0.36271
C         49.94610        48.62471         0.23996
C         48.70028        47.90119         0.33211
C         49.94284        50.04548         0.09984
C         48.70817        50.72749         0.02176
C         49.98636        52.96751        -0.15295
C         48.70182        52.18987        -0.24673
C         49.95047        54.43645         0.13392
C         48.75834        55.13123         0.11244
C         49.95600        57.26618         0.78479
C         48.67174        56.57916         0.42176
C         49.95055        58.47187         1.70782
C         48.63563        59.19843         1.65818
C         52.45967        41.51268         0.55984
C         51.27372        42.19263         0.68568
C         52.45116        44.32146         0.26571
C         51.20602        43.60364         0.48482
C         52.46566        45.72387         0.25393
C         51.18805        46.45346         0.62403
C         52.41018        48.60270         0.22552
C         51.19066        47.92389         0.28365
C         52.43458        50.04829         0.25548
C         51.18670        50.80109         0.14777
C         52.51011        52.94723         0.14650
C         51.20271        52.18827         0.13418
C         52.42493        54.36795         0.66281
C         51.20919        55.09119         0.49926
C         52.39251        57.14513         1.09994
C         51.19399        56.46376         0.81951
C         52.38436        58.60185         1.20566
C         51.20516        59.29225         1.44372
C         52.34693        61.43051         1.21157
C         51.24977        60.73234         1.58728
C         55.02180        40.00914         0.40504
C         54.86986        41.39019        -0.10687
C         53.66423        42.18285         0.20240
C         54.92526        44.30555        -0.12342
C         53.67838        43.58469         0.09008
C         54.91712        45.76041        -0.06876
C         53.68337        46.45180         0.11505
C         54.88395        48.60247         0.14574
C         53.66160        47.88681         0.18034
C         54.90218        50.03460         0.42888
C         53.63249        50.70568         0.47735
C         54.76625        52.78645         1.45934
C         53.58025        52.14321         0.83403
C         54.80725        54.29592         1.71706
C         53.60014        55.02163         1.10170
C         54.83934        57.19025         1.46756
C         53.59398        56.42866         1.20572
C         54.84446        58.62656         1.07133
C         53.63475        59.30048         0.98958
C         54.79096        61.50636         0.54755
C         53.49257        60.72991         0.51503
C         54.82886        62.83361        -0.07410
C         57.40097        39.94026        -0.39433
C         56.17452        39.33916         0.27191
C         57.44186        41.44478        -0.20608
C         56.16732        42.15503        -0.40106
C         57.41213        44.32618        -0.60610
C         56.12203        43.61792        -0.29087
C         57.40206        45.79538        -0.26110
C         56.13719        46.49731        -0.14939
C         57.33174        48.71169        -0.18865
C         56.09997        47.91214        -0.00938
C         57.40007        50.21779         0.15823
C         56.07457        50.73681         0.66773
C         57.33657        52.79465         1.58519
C         56.03937        51.94190         1.60335
C         57.32656        54.28248         1.37499
C         56.14668        54.97214         1.45113
C         57.45013        57.23362         1.50221
C         56.14044        56.45505         1.59961
C         57.32857        58.56866         0.77561
C         56.10543        59.25426         0.75992
C         57.25462        61.36150        -0.08924
C         56.08915        60.71961         0.56371
C         57.28255        62.82161        -0.20634
C         56.01542        63.48397        -0.28191
C         60.01685        37.20914         0.19559
C         58.86362        37.84839        -0.20732
C         59.88413        40.04424         0.56038
C         58.62456        39.23012         0.15354
C         59.88023        41.48095         0.28450
C         58.63200        42.15873         0.00103
C         59.85560        44.29058        -0.04725
C         58.64776        43.59080        -0.13059
C         59.86913        45.73484        -0.14513
C         58.61103        46.46286        -0.20121
C         59.89007        48.68021        -0.08244
C         58.61068        47.94117        -0.27689
C         59.89920        50.02972         0.53978
C         58.59049        50.53959         1.13416
C         59.90767        52.83962         1.32128
C         58.63002        52.05104         1.46124
C         59.85780        54.30578         1.09189
C         58.60914        54.99716         1.16840
C         59.83112        57.11240         0.80443
C         58.62754        56.40287         1.05158
C         59.80583        58.54537         0.56947
C         58.56478        59.21317         0.45579
C         59.81091        61.34090        -0.17299
C         58.55896        60.57512        -0.10271
C         59.77460        62.75631        -0.36290
C         58.52776        63.47402        -0.39641
C         59.74087        65.59284        -0.51856
C         58.56265        64.90024        -0.52157
C         62.41779        35.72026         0.93398
C         62.36201        37.19122         1.23640
C         61.13986        37.90957         0.70441
C         62.37609        40.05428         0.70526
C         61.15881        39.31946         0.67142
C         62.35784        41.47051         0.52163
C         61.10166        42.16917         0.28992
C         62.33181        44.29604         0.08992
C         61.10438        43.59237         0.11912
C         62.34303        45.71607        -0.03237
C         61.09289        46.40402        -0.11230
C         62.40726        48.51804         0.32954
C         61.14008        47.87750        -0.10730
C         62.39885        49.99799         0.47786
C         61.08602        50.68611         0.62192
C         62.33385        52.85380         0.53325
C         61.18674        52.10169         1.01440
C         62.40537        54.27721         0.98736
C         61.06844        55.00282         0.89415
C         62.30709        57.15104         0.60167
C         61.06684        56.41317         0.73650
C         62.29138        58.54223         0.38311
C         61.03121        59.24658         0.29016
C         62.27880        61.31414        -0.52044
C         61.02132        60.63082        -0.03326
C         62.26863        62.81702        -0.34184
C         61.01506        63.50129        -0.38612
C         62.22832        65.66323        -0.37104
C         60.99510        64.91962        -0.41458
C         62.22983        67.08126        -0.34770
C         64.87106        35.72471         0.84216
C         63.58402        35.05412         0.80479
C         64.86785        37.17349         0.86471
C         63.65199        37.90175         0.90181
C         64.84685        40.04629         0.80492
C         63.64884        39.34063         0.80934
C         64.85764        41.54694         0.93117
C         63.57041        42.20147         0.49081
C         64.81103        44.29628         0.05807
C         63.57828        43.59259         0.22629
C         64.82191        45.70532        -0.16950
C         63.58652        46.41995        -0.11027
C         64.81113        48.58423        -0.27732
C         63.64014        47.84441        -0.08814
C         64.76990        50.04599        -0.29882
C         63.59592        50.72154         0.02888
C         64.74461        52.95796        -0.41514
C         63.45781        52.17734        -0.11670
C         64.81580        54.36486         0.06145
C         63.58483        55.04303         0.45016
C         64.82480        57.15013         0.74583
C         63.55434        56.41692         0.57698
C         64.81324        58.63635         0.56913
C         63.52733        59.29830         0.25113
C         64.76894        61.40498        -0.06018
C         63.53862        60.64482        -0.04756
C         64.72938        62.79017        -0.23137
C         63.48206        63.52389        -0.32339
C         64.67788        65.74029        -0.36470
C         63.47497        64.97387        -0.34737
C         64.65773        67.14639        -0.37457
C         63.40700        67.80257        -0.34306
C         67.27750        32.88338         1.05520
C         66.11952        33.56684         0.91162
C         67.34154        35.72259         0.85926
C         66.08070        35.01693         0.86864
C         67.33457        37.15890         0.78623
C         66.10885        37.85946         0.82266
C         67.34948        39.99218         0.45898
C         66.14532        39.34093         1.07739
C         67.25314        41.36250        -0.14356
C         66.07605        42.19488         0.31491
C         67.25900        44.22286        -0.47008
C         66.03512        43.53056         0.00699
C         67.26230        45.70782        -0.65120
C         66.01708        46.44958        -0.41275
C         67.24659        48.57025        -0.81988
C         66.03550        47.86135        -0.50810
C         67.13781        50.02383        -1.26314
C         65.97208        50.79043        -0.65109
C         67.22700        52.93753        -0.85826
C         65.98512        52.16662        -0.60652
C         67.25114        54.40152        -0.46402
C         66.01727        55.02665         0.05907
C         67.33404        57.16350         0.35069
C         66.12623        56.35608         0.76846
C         67.32957        58.57974         0.31628
C         66.08265        59.33521         0.28273
C         67.27781        61.46844         0.03439
C         66.04271        60.70525         0.05032
C         67.24667        62.83502         0.08483
C         65.99924        63.53803        -0.28953
C         67.18518        65.80504         0.02966
C         65.97945        65.02831        -0.41162
C         67.25647        67.24060        -0.35800
C         65.91750        67.94706        -0.50379
C         67.12740        70.04642        -0.04992
C         65.95185        69.38745        -0.22739
C         69.79999        31.37945         0.59415
C         69.86840        32.79930         1.01448
C         68.57078        33.57640         1.16788
C         69.80614        35.73986         0.80069
C         68.56826        35.03705         0.93536
C         69.79927        37.17325         0.68371
C         68.56996        37.87425         0.70041
C         69.79639        39.98526         0.16119
C         68.54479        39.30038         0.43694
C         69.76765        41.41724        -0.08668
C         68.57893        42.08973        -0.10249
C         69.82450        44.34656        -0.31392
C         68.55611        43.56539        -0.13184
C         69.74607        45.76998        -0.73449
C         68.53813        46.45354        -0.70700
C         69.66130        48.55702        -1.35769
C         68.46781        47.87967        -0.93252
C         69.60607        49.97292        -1.65039
C         68.46719        50.75558        -1.32534
C         69.66379        53.14268        -1.32389
C         68.56204        52.19841        -0.82785
C         69.74330        54.44599        -0.71909
C         68.55228        55.07282        -0.19534
C         69.81640        57.15569         0.35231
C         68.54688        56.43295         0.16563
C         69.80545        58.62304         0.32658
C         68.56492        59.28396         0.21405
C         69.81527        61.45042         0.23435
C         68.57396        60.72856        -0.19921
C         69.77897        62.91611         0.44972
C         68.46834        63.61066         0.41508
C         69.73828        65.84896         0.32880
C         68.45315        65.10552         0.37369
C         69.69549        67.27894         0.29785
C         68.46677        67.99141         0.03506
C         69.62597        70.15299         0.28579
C         68.41405        69.38767         0.05344
C         69.61925        71.56978         0.29608
C         71.41767        31.87126        -1.16108
C         70.52126        30.95847        -0.46713
C         71.71831        33.07993        -0.64851
C         71.16502        33.53098         0.69037
C         72.23570        35.77362         0.64416
C         71.04729        35.04765         0.73062
C         72.23909        37.17137         0.57417
C         71.03716        37.89269         0.55714
C         72.23058        40.12540         0.44596
C         71.01199        39.32911         0.35326
C         72.25389        41.44042         0.14103
C         71.06392        42.07558        -0.53295
C         72.17944        44.29063        -0.93757
C         71.07228        43.59249        -0.53852
C         72.14468        45.69976        -1.16808
C         70.96394        46.43260        -1.11866
C         71.99827        48.46773        -2.09554
C         70.88379        47.83706        -1.51224
C         71.89320        49.76975        -2.58893
C         70.73027        50.49670        -2.36226
C         71.73305        53.67985        -2.55411
C         70.64297        52.83588        -2.27097
C         71.91693        54.82392        -1.79707
C         70.94675        55.20747        -0.85618
C         72.28619        57.33787        -0.34307
C         71.12573        56.46737        -0.11568
C         72.25463        58.66219        -0.00194
C         71.03408        59.34045         0.30238
C         72.18638        61.56646         0.81365
C         71.00340        60.78961         0.42619
C         72.21603        62.91472         0.75096
C         71.05420        63.66940         0.13352
C         72.15130        65.92368         0.50369
C         70.96579        65.16639         0.40216
C         72.11714        67.30721         0.57568
C         70.90185        68.01966         0.45774
C         72.03905        70.23700         0.67042
C         70.86372        69.47240         0.47058
C         72.00287        71.62191         0.68530
C         70.78422        72.29307         0.49317
O         62.53869        49.09430         1.66508
O         69.09949        63.20643         1.70793
O         58.88388        39.58711         1.53396
O         69.37587        33.11115         2.34082
O         70.60001        51.68868        -3.06329
O         64.77413        58.02794         1.93230
O         60.68166        48.57129        -1.32620
O         57.70258        60.68009        -1.30604
O         57.92399        48.43793        -1.50183
O         47.33294        53.58760         1.28411
O         66.72702        67.54706        -1.67406
O         55.39860        56.90393         2.79822
O         45.60977        50.61511         1.66403
O         55.33323        41.57671        -1.48871
O         37.98357        51.45619        -0.26541
O         70.70722        56.48054         1.28293
O         63.76355        52.72047        -1.46863
O         42.75115        50.62632         1.36542
O         69.22373        44.15026         1.04128
O         49.39655        52.59598        -1.47166
O         49.40881        57.45504        -0.54587
O         53.65482        52.26618         2.29224
O         45.15453        53.75888        -1.59301
O         66.19317        64.23596        -1.61783
O         55.59342        61.41452         1.76207
O         67.11894        53.95655        -1.88239
O         67.16350        44.75056        -1.82827
O         58.10730        52.40422         2.77817
O         67.53553        65.62442         1.43108
O         60.79868        52.42831         2.42543
O         41.28043        52.24892        -2.33443
H         41.65362        53.11088        -2.65983
O         42.33625        53.31781         1.05503
H         42.22380        52.45704         1.52659
O         71.19919        63.55630        -1.31874
H         72.01029        64.04053        -1.58009
O         68.64775        60.68375        -1.68545
H         69.53997        60.35316        -1.92549
O         55.97024        51.31513         2.91293
H         55.81434        52.02326         3.57445
O         57.50765        44.28522        -2.08229
H         56.76719        44.81928        -2.44158
O         53.13950        60.67898        -0.90517
H         52.28843        60.19722        -0.98410
O         50.08205        57.91799         3.05747
H         50.14376        58.66508         3.68864
O         50.10652        45.76934        -1.39796
H         49.34002        45.29322        -1.78053
O         62.26689        61.10231        -1.98470
H         61.45694        61.53059        -2.33649
O         57.68581        50.95359        -1.05792
H         57.92052        50.27894        -1.74453
O         57.82566        57.62940         2.85666
H         56.98670        57.67408         3.37658
O         66.73789        49.92743        -2.68998
H         67.41287        49.38538        -3.15224
O         62.24499        37.29094         2.71122
H         62.93543        36.71006         3.09608
O         66.36447        39.44860         2.54935
H         65.55000        39.12135         2.98748
O         68.81757        52.00200         0.60531
H         69.69604        51.57921         0.71007
O         57.33205        39.66948        -1.81717
H         56.57793        40.20634        -2.16305
O         64.94416        41.83685         2.38150
H         64.11769        41.50854         2.79549
O         39.79792        52.72107         0.99919
H         39.00731        52.13484         1.09282
O         62.73216        54.21755         2.43023
H         62.04225        53.64165         2.85260
O         66.98581        41.13141        -1.58691
H         66.96719        42.00855        -2.02953
O         51.07994        46.38040         2.07811
H         51.83454        46.87257         2.46412
O         42.75488        54.42446        -2.42022
H         43.68404        54.12750        -2.58467
O         72.13427        33.13775         1.70018
H         71.67369        33.19555         2.56550
O         71.17527        41.70971        -1.95774
H         71.15799        40.72986        -2.00843
O         54.62439        54.43669         3.15221
H         53.85988        53.86544         3.39496
O         42.62561        48.52504        -1.70167
H         41.84321        48.96124        -2.10427
O         66.38467        56.00895         2.16338
H         66.02333        56.74896         2.70571
O         58.37715        49.80005         2.34432
H         57.86249        50.38918         2.95191
O         52.93484        53.05595        -1.24974
H         52.15849        53.33219        -1.78266
H         38.28874        49.04848        -2.51001
H         36.76141        50.35024        -3.95206
H         38.15608        54.07704        -2.29881
H         36.71266        52.82601        -3.85603
H         39.00945        48.23388        -0.08872
H         39.14077        55.04229        -0.46413
H         41.04122        46.93738         0.40897
H         41.18223        56.23586        -0.85668
H         44.94410        44.70087         0.49323
H         42.83998        45.89857         0.19446
H         44.77773        58.05286         1.35033
H         42.72153        56.89371         0.67564
H         46.59319        43.77675         0.71207
H         46.52197        59.09575         1.48728
H         48.67466        42.55878         0.79456
H         48.58403        60.22887         2.03991
H         52.45986        40.42109         0.67824
H         50.36047        41.62592         0.90922
H         52.37150        62.52652         1.29815
H         50.38002        61.25747         2.00875
H         54.17578        39.53777         0.92566
H         53.87903        63.31741        -0.34161
H         56.25852        38.31088         0.65530
H         55.97992        64.52361        -0.63626
H         60.10450        36.13162        -0.00162
H         58.13103        37.33158        -0.84283
H         59.70554        66.68627        -0.59994
H         57.62235        65.46132        -0.59290
H         61.48117        35.14541         0.95234
H         61.28355        67.63637        -0.34058
H         63.55412        33.96502         0.66149
H         63.35841        68.89942        -0.34586
H         67.26115        31.78789         1.13702
H         65.17915        33.00230         0.85659
H         67.08174        71.13065         0.11941
H         65.00968        69.94762        -0.14568
H         69.12062        30.69877         1.12612
H         68.68192        72.11961         0.14036
H         71.86948        31.53932        -2.10712
H         70.44861        29.92028        -0.81992
H         72.43438        33.74071        -1.15967
H         73.18947        35.22822         0.61614
H         73.20114        37.69298         0.48117
H         73.13306        39.65209         0.85893
H         73.17666        42.02483         0.26986
H         73.12302        43.76010        -1.13059
H         73.08578        46.18283        -1.46240
H         72.93604        47.91872        -2.24571
H         72.70951        50.21888        -3.16862
H         72.45664        53.38296        -3.32316
H         72.81190        55.43802        -1.95773
H         73.21671        56.91043        -0.74143
H         73.16878        59.26326        -0.11229
H         73.05609        61.02004         1.20785
H         73.11766        63.45554         1.07470
H         73.12397        65.41357         0.54888
H         73.06686        67.84556         0.69024
H         73.00401        69.73585         0.82346
H         72.92684        72.19444         0.84533
H         70.75503        73.39138         0.49768
