         621
 CSIRO Nanostructure Databank - Neutral Graphene Oxide Data Set
C          5.82720        31.79183         1.06098
C          5.84722        33.14519         0.82962
C          8.31273        27.51368         1.68398
C          8.24577        28.90395         1.59344
C          7.04887        29.64389         1.39719
C          8.27229        31.74113         0.92156
C          7.04328        31.03376         1.15186
C          8.31078        33.12354         0.72976
C          7.07960        33.87069         0.70019
C          8.33488        35.98693         0.56308
C          7.11678        35.26036         0.52215
C          8.39046        37.36255         0.31388
C         10.63604        23.24923         1.84623
C         10.75546        24.63446         2.03320
C          9.58198        25.42284         1.75409
C         10.79010        27.52143         2.34980
C          9.53905        26.79935         1.86469
C         10.81314        28.99040         1.91729
C          9.52348        29.65887         1.58990
C         10.81282        31.67655         0.61676
C          9.51252        30.95563         0.84100
C         10.77472        33.14250         0.64039
C          9.58089        33.82976         0.67188
C         10.75207        35.98600         1.02506
C          9.59388        35.28087         0.78484
C         10.65939        37.44924         1.40448
C          9.53777        38.15328         0.59866
C         10.34944        40.48492         0.81325
C          9.47694        39.50672         0.24862
C         10.81519        41.68738         0.33507
C         13.48613        19.27277         1.22249
C         13.31600        20.44673         1.96504
C         12.05127        21.12106         1.68804
C         13.40155        23.34815         2.86073
C         11.61373        22.28874         2.27638
C         13.27239        24.66727         2.44266
C         12.02315        25.35597         2.24702
C         13.30820        27.43325         1.76879
C         12.06626        26.75466         2.05613
C         13.38160        28.94240         1.55793
C         12.01391        29.51153         1.12518
C         13.31795        31.65695         0.48770
C         12.08850        31.06171         1.17921
C         13.29430        33.14246         0.32972
C         12.06349        33.82243         0.86278
C         13.35068        36.02554         0.95364
C         12.05773        35.29797         1.10697
C         13.30432        37.44964         1.24317
C         12.03750        38.09574         1.43014
C         13.20312        40.26620         1.59298
C         12.08135        39.46855         1.73352
C         13.06359        41.73615         1.65999
C         11.93017        42.40982         0.92319
C         13.15459        44.58319         0.88138
C         12.05694        43.72701         0.54070
C         13.19009        45.85977         0.37720
C         16.24703        16.31198        -1.71399
C         15.51151        16.62911        -0.61880
C         14.53596        17.75135        -0.40051
C         15.70446        18.35330         1.85569
C         14.64339        18.44945         0.96748
C         15.69558        20.43755         2.75023
C         14.48555        21.12094         2.56118
C         15.81794        23.20532         2.51388
C         14.57673        22.55845         2.66491
C         15.84791        24.67115         2.52007
C         14.53494        25.41767         2.40912
C         15.80122        27.35146         1.42934
C         14.51393        26.76781         1.85636
C         15.81335        28.70306         0.77459
C         14.49625        29.44428         0.56258
C         15.80554        31.66866         0.59420
C         14.62242        30.96461         0.61247
C         15.91549        33.16078         0.23693
C         14.55693        33.97197         0.08365
C         15.82962        36.05970         0.81578
C         14.53144        35.33819         0.78092
C         15.79154        37.56213         1.15883
C         14.49428        38.17939         1.40173
C         15.73787        40.39794         1.73050
C         14.48761        39.57946         1.96205
C         15.66853        41.77152         1.81954
C         14.34289        42.50177         1.89283
C         15.59071        44.62996         1.18455
C         14.29018        44.04420         1.75929
C         15.51440        46.15210         1.28734
C         14.27283        46.80547         0.72492
C         15.59414        48.88610         0.32258
C         14.43588        48.13455         0.12781
C         15.75362        50.16508        -0.31130
C         18.45735        13.08532        -4.55008
C         18.36670        13.57498        -3.27061
C         17.34523        14.54838        -2.95484
C         18.04092        14.70701        -0.55479
C         17.23587        15.22417        -1.76940
C         18.17927        15.74348         0.57452
C         16.94769        16.42434         0.97202
C         18.22374        18.14620         2.13335
C         16.94979        17.59536         1.68318
C         18.22086        20.37633         2.73159
C         16.98128        21.07439         2.65638
C         18.29958        23.14030         2.29200
C         17.02666        22.47702         2.41820
C         18.31428        24.56645         2.18863
C         17.11117        25.34030         2.13766
C         18.29785        27.55488         1.87517
C         17.07240        26.68979         1.80417
C         18.36360        28.77891         0.97222
C         17.09211        29.50165         0.64783
C         18.26761        31.68498         0.99975
C         17.07606        30.97966         0.72584
C         18.26079        33.12802         1.15568
C         17.05318        33.87421         0.94792
C         18.23543        35.95708         1.55015
C         17.06203        35.28143         1.11367
C         18.12629        37.35980         2.14503
C         17.00621        38.24412         1.63230
C         18.21964        40.36329         1.98998
C         17.00850        39.65792         1.78633
C         18.27729        41.82634         1.83746
C         16.93246        42.56694         1.73318
C         17.73042        44.90701         2.35867
C         16.78828        44.04495         1.88245
C         17.76490        46.32093         2.12506
C         16.75795        46.94522         1.40697
C         18.46151        48.95039         0.54767
C         16.69561        48.32698         1.08888
C         18.22995        49.84793        -0.59457
C         16.99028        50.66754        -0.74529
C         18.20765        52.26823        -2.24357
C         17.03226        51.79861        -1.58291
C         18.16264        53.39596        -3.08791
C         21.09141        11.74568        -8.49438
C         20.96120        11.94322        -7.11795
C         19.72709        12.22927        -6.43964
C         20.84645        12.41672        -4.21721
C         19.66586        12.50371        -5.07846
C         20.80873        12.94783        -2.91922
C         19.50512        13.39618        -2.33674
C         20.71303        14.73692        -0.51314
C         19.42159        14.13065        -1.01411
C         20.74876        15.95065         0.37599
C         19.46423        16.46597         0.94913
C         20.71560        18.58597         1.87906
C         19.43673        17.82059         1.56411
C         20.73160        20.06809         2.38765
C         19.48097        20.94300         2.44283
C         20.79493        23.08556         2.28764
C         19.50010        22.35946         2.27130
C         20.82824        24.50941         1.85071
C         19.58340        25.28070         2.04622
C         20.71380        27.35581         1.02963
C         19.59991        26.76122         1.87429
C         20.81364        28.86240         1.23454
C         19.58933        29.57690         1.17080
C         20.73407        31.70278         1.44554
C         19.52224        30.97981         1.17534
C         20.68132        33.08506         1.65450
C         19.45683        33.81681         1.50325
C         20.70152        35.95246         1.94670
C         19.43943        35.24300         1.70700
C         20.72527        37.37696         2.03680
C         19.45780        38.10325         2.26652
C         20.77147        40.28225         1.94972
C         19.47734        39.62261         2.23058
C         20.80268        41.72426         1.81622
C         19.61949        42.48574         2.00840
C         20.89394        44.63235         1.76249
C         19.77572        43.87071         2.22472
C         20.90373        46.05117         1.39450
C         19.80247        47.01367         1.50296
C         20.79099        48.56207        -0.14346
C         19.63488        48.10384         0.61321
C         20.76222        49.72616        -0.88330
C         19.49216        50.32177        -1.32031
C         20.64282        52.17145        -2.56261
C         19.46883        51.61234        -2.03709
C         20.59178        53.26881        -3.45896
C         19.32189        53.87632        -3.74739
C         20.41485        55.37623        -5.37418
C         19.26198        54.94011        -4.67760
C         20.32367        56.37849        -6.37204
C         23.57991        10.55534       -11.01487
C         22.39360        11.03153       -10.46499
C         23.55227        11.41150        -8.32680
C         22.34602        11.41313        -9.09980
C         23.41146        11.75716        -6.94405
C         22.14365        11.88481        -6.31223
C         23.22097        11.55954        -4.19993
C         22.05966        11.95139        -4.88830
C         23.25133        12.59408        -2.30845
C         21.97569        13.24236        -2.08259
C         23.20141        14.85151        -0.63775
C         21.94936        14.32471        -1.21600
C         23.19727        16.28179        -0.19097
C         21.90692        16.90557         0.33886
C         23.19850        18.80761         1.22949
C         21.97098        18.10015         1.20170
C         23.27913        20.16713         1.69516
C         22.13243        20.78095         2.49194
C         23.32374        23.02306         1.96446
C         22.07835        22.30812         2.33447
C         23.28050        24.49881         2.00295
C         22.00309        25.17743         1.66998
C         23.31308        27.36012         1.16270
C         22.02961        26.58827         1.17288
C         23.29710        28.84879         1.18562
C         22.02709        29.55726         1.27189
C         23.20811        31.70591         1.52235
C         22.00243        30.98978         1.43704
C         23.20540        33.08969         1.85781
C         21.89729        33.75824         2.22524
C         23.15161        35.94668         2.17127
C         21.91565        35.25249         2.02880
C         23.18829        37.36818         2.17348
C         21.94422        38.09003         2.06596
C         23.23565        40.22145         1.78747
C         21.94010        39.53333         1.96372
C         23.27523        41.69972         1.75343
C         22.04046        42.42098         1.70651
C         23.29850        44.45501         1.16131
C         22.06646        43.84091         1.52814
C         23.28903        45.79761         0.70592
C         22.07272        46.54268         0.75807
C         23.32547        48.38441        -0.51003
C         22.08435        47.91555         0.20675
C         23.17350        49.47628        -1.50808
C         22.00906        50.39122        -1.32886
C         23.15955        52.00438        -2.98906
C         21.96026        51.60423        -2.20240
C         23.05107        53.15714        -3.81698
C         21.78773        53.74586        -4.10554
C         22.84243        55.18004        -5.85322
C         21.69115        54.77734        -5.08872
C         22.71682        56.15950        -6.87999
C         21.44784        56.77507        -7.13058
C         22.47831        58.12352        -8.89119
C         21.35423        57.76394        -8.14695
C         24.72749        10.42584       -10.23073
C         25.98699        10.53981        -8.16146
C         24.77929        10.86057        -8.88026
C         26.38965        11.12837        -6.93278
C         24.54917        11.94481        -6.12012
C         25.74311        11.70140        -3.92388
C         24.50380        11.63338        -4.77018
C         25.68667        12.88813        -2.97801
C         24.47927        13.19871        -2.14567
C         25.71870        15.13264        -1.02215
C         24.52623        14.31382        -1.18791
C         25.69954        16.25470        -0.17142
C         24.46263        16.89779         0.20213
C         25.69955        18.85481         0.95511
C         24.44178        18.17732         0.77694
C         25.71773        20.22227         1.28660
C         24.48268        20.89061         1.60601
C         25.76470        23.08056         1.61717
C         24.51360        22.34515         1.78494
C         25.81668        24.48793         1.64754
C         24.58328        25.26231         1.88072
C         25.80198        27.32975         1.14882
C         24.56249        26.66904         1.48864
C         25.77118        28.83372         0.95945
C         24.48123        29.54047         1.15735
C         25.71317        31.63240         1.74583
C         24.48892        31.05064         1.05905
C         25.65951        33.04420         2.19980
C         24.38647        33.79631         2.08762
C         25.58047        35.92008         2.58771
C         24.38671        35.22463         2.29145
C         25.61210        37.32795         2.71369
C         24.43302        38.03413         2.40162
C         25.71574        40.25967         2.47364
C         24.50035        39.47419         2.09908
C         25.75853        41.69255         2.08155
C         24.49709        42.35373         1.65520
C         25.75881        44.31769         0.91343
C         24.53139        43.72887         1.26695
C         25.70633        45.53853         0.17909
C         24.49111        46.28984         0.08258
C         25.57082        47.86582        -1.48880
C         24.49022        47.49756        -0.65678
C         25.60091        49.12879        -2.21606
C         24.36382        49.94337        -2.27415
C         25.63482        51.82750        -3.36291
C         24.35788        51.29954        -2.85144
C         25.60390        53.05017        -4.22746
C         24.26178        53.71967        -4.44394
C         25.25669        54.94668        -6.38002
C         24.11362        54.61717        -5.59204
C         25.11048        55.90776        -7.40126
C         23.86410        56.53483        -7.64706
C         23.71581        57.52537        -8.65737
C         27.15000        10.66393        -5.87121
C         28.28673        11.96886        -3.99397
C         27.06629        11.32698        -4.52660
C         28.26375        13.04679        -3.11926
C         26.94997        13.65953        -2.74214
C         28.24898        15.25985        -1.18925
C         26.95094        14.77483        -1.74135
C         28.19065        16.01923         0.11986
C         26.93603        16.85326         0.21997
C         28.19971        18.80398         0.98497
C         26.94353        18.15016         0.73700
C         28.21985        20.20465         1.19377
C         26.96864        20.94167         1.27423
C         28.21286        23.08203         1.14134
C         26.96807        22.34068         1.37058
C         28.28936        24.52078         1.41860
C         27.04668        25.22787         1.49744
C         28.29963        27.36219         1.46254
C         27.07559        26.63452         1.40918
C         28.29940        28.78511         1.46214
C         27.07640        29.55846         1.13842
C         28.25240        31.67871         2.02294
C         27.05310        31.03088         1.43127
C         28.18489        32.99202         2.46299
C         26.95288        33.82816         2.16624
C         28.00749        35.79523         3.45394
C         26.78722        35.12841         2.93810
C         28.17807        37.30135         3.38326
C         26.87747        38.05012         3.11091
C         28.29628        40.14752         2.40764
C         26.99343        39.52953         2.80826
C         28.25030        41.50883         1.83366
C         27.07876        42.25743         1.73635
C         28.26779        44.16436         0.57707
C         27.08147        43.74876         1.43432
C         28.11487        45.26008        -0.42754
C         26.82515        45.96766        -0.58848
C         27.81119        47.29896        -2.45553
C         26.73060        47.03447        -1.48300
C         27.79120        48.59492        -3.24117
C         26.69549        49.52764        -2.94947
C         27.90452        51.21217        -4.44014
C         26.82687        50.91031        -3.45536
C         27.78752        52.35120        -5.25773
C         26.65897        53.22288        -5.25558
C         26.49314        54.22911        -6.20523
C         29.45917        13.50696        -2.48982
C         30.66850        14.95074        -0.86928
C         29.50161        14.52455        -1.51153
C         30.68830        16.14608        -0.06032
C         29.46606        16.78527         0.30934
C         30.68711        18.76248         1.06096
C         29.44673        18.10000         0.81151
C         30.70577        20.14306         1.41121
C         29.47001        20.85716         1.33504
C         30.73685        23.01762         1.55982
C         29.52704        22.30487         1.16615
C         30.75914        24.43532         1.59972
C         29.51530        25.18111         1.48612
C         30.75784        27.29995         1.70666
C         29.54855        26.62570         1.59815
C         30.74593        28.75473         1.80918
C         29.47021        29.50196         1.81165
C         30.59032        31.47893         2.80539
C         29.45881        30.88924         2.14294
C         30.66333        32.97670         2.95686
C         29.31946        33.64179         3.08471
C         31.08088        36.05325         3.62057
C         29.17419        34.90347         3.59386
C         30.84298        37.32380         3.10619
C         29.52265        38.05006         3.15582
C         30.73376        40.01327         1.98592
C         29.49059        39.42847         2.51337
C         30.69300        41.33556         1.40821
C         29.50322        42.07307         1.32086
C         30.53917        43.69377        -0.25038
C         29.46419        43.28120         0.52811
C         30.39056        44.61830        -1.39685
C         29.10910        45.38115        -1.53474
C         30.22215        47.02756        -3.05786
C         29.09083        46.60209        -2.34455
C         30.17934        48.26437        -3.80051
C         29.05405        49.08827        -3.83806
C         29.01547        50.34626        -4.50484
C         31.90421        16.77475         0.27337
C         33.13454        18.77353         1.05682
C         31.92171        18.07416         0.83871
C         33.18391        20.11431         1.48990
C         31.93697        20.82407         1.68510
C         32.95315        22.99373         2.45939
C         31.87147        22.25482         1.93237
C         33.11447        24.37796         2.26496
C         31.98379        25.10718         1.83602
C         33.09066        27.09449         2.77323
C         32.10984        26.60909         1.67347
C         33.18046        28.61719         2.92559
C         31.95000        29.40124         2.55330
C         33.52784        31.66262         3.28012
C         31.62695        30.65389         3.20012
C         33.31360        32.96550         2.93789
C         32.00252        33.71358         3.04200
C         33.33011        35.81464         2.77292
C         32.17566        35.20401         3.25845
C         33.38510        37.28677         2.72155
C         32.06152        38.07066         2.76276
C         33.19464        39.89604         1.45677
C         31.98284        39.36114         2.05699
C         33.16527        41.14152         0.81267
C         31.95231        41.94565         0.93708
C         32.97780        43.49392        -0.91625
C         31.87254        43.19505         0.02580
C         32.82340        44.54035        -1.85852
C         31.58355        45.17825        -2.07674
C         31.44823        46.29284        -2.91560
C         34.48509        20.74925         1.46068
C         35.78206        22.90093         1.83999
C         34.79147        21.93964         2.11667
C         35.67592        24.28553         2.19650
C         34.43056        25.02166         2.42672
C         35.66711        27.16183         2.49503
C         34.44627        26.40904         2.58409
C         35.70988        28.57215         2.51120
C         34.52100        29.35359         2.91448
C         35.64591        31.41733         2.04589
C         34.58515        30.83253         2.74826
C         35.53767        32.83956         1.60135
C         34.34014        33.61079         2.10284
C         35.62726        35.70201         1.96080
C         34.44126        35.06429         2.28297
C         35.62865        37.08725         1.71351
C         34.49950        37.88564         1.97192
C         35.73222        39.73597         0.88852
C         34.43278        39.16202         1.43325
C         35.47849        40.89236        -0.02045
C         34.29568        41.61242         0.02811
C         34.15618        42.76560        -0.81893
C         36.86636        25.02848         2.13728
C         38.11126        27.13006         2.14213
C         36.89843        26.43523         2.26242
C         38.13083        28.53732         1.96677
C         36.87591        29.27035         2.06035
C         38.00068        31.30519         1.15016
C         36.82598        30.65138         1.75591
C         38.04995        32.81185         1.01771
C         36.77777        33.59374         1.13629
C         38.20234        35.69821         1.80238
C         36.84087        35.07505         1.41377
C         37.49634        36.18948         0.55087
C         36.67974        37.43643         0.78859
C         36.69586        38.70756         0.29996
C         39.33637        29.21377         1.76213
C         40.58248        31.36904         1.26298
C         39.34246        30.56140         1.22281
C         40.56733        32.71811         1.30108
C         39.33889        33.50684         1.29674
C         39.38077        34.81811         1.66694
O         13.00232        32.26300        -0.79922
O         28.70250        45.54856         0.90094
O         23.28881        49.05909        -2.89633
O         18.90389        15.39347         1.79036
O         23.15961        11.29797        -2.83270
O         27.31734        47.34628        -3.84996
O         15.73347        15.87693         0.55344
O         25.26762        54.24595        -3.47438
O         34.39587        33.10376         0.71996
O         25.53266        41.28297         3.50269
O         33.92103        22.29969         3.17571
O         22.75605        26.71913        -0.10425
O         32.55607        31.10361         4.14549
O         26.35493        10.47328        -3.48118
O         26.71796        51.89259        -2.36026
O         13.46075        42.15005         3.03529
O         26.05266        14.04696        -3.83946
O         18.92081        46.96848         2.61011
O         17.69333        42.24173         0.49982
O         10.86998        40.09008         2.06144
O         25.78108        27.97307        -0.22036
O         29.32674        44.15866        -2.32342
O         27.24726        30.57188         0.05661
O         12.31320        22.69356         3.43074
O         31.31324        33.52629         1.73383
O         37.29684        33.23984        -0.17520
O         15.25978        25.30678         3.71221
O         27.65320        15.97074        -2.29818
O         26.75854        39.04130         4.17340
O         26.98701        35.21519         4.38151
O         25.74199        12.36834        -6.69192
O         33.01346        38.04656         3.90181
O         10.18470        29.84811         2.92440
O         21.50976        22.89786         3.56983
O         18.14590        19.06556         3.17171
O         12.17603        34.33404         2.23376
O         18.83916        44.46279         3.06776
O         28.91278        22.73268        -0.10162
O         23.97800        13.93666         0.16112
O         22.25554        51.69654        -0.73575
O         15.82669        27.51884        -0.08548
O         14.54021        46.74764         2.18195
O         25.59476        31.93257         3.16884
O         17.65844        49.19644         1.68291
O         17.91457        28.85360        -0.39871
O         23.93195        25.04519         3.21077
O         19.32751        12.67818        -1.03940
O         15.98416        37.05435        -0.23485
O         20.77652        18.93241         3.29113
O         21.03460        14.63363         0.93065
O         22.36112        17.13582        -1.04785
O         28.89948        37.92730         4.47085
O         38.55161        30.65160        -0.02578
O         16.63113        33.25939        -0.98663
O         30.14417        35.41266         4.43807
O         19.90154        26.27453         3.19549
O         19.50044        38.87855         3.51952
O         23.05606        48.81994         0.85825
O         18.60821        49.28156        -1.89151
O         33.85007        28.93132         4.16986
O         15.62477        19.06559         3.06119
O         32.22817        43.29662         1.43757
O         10.14891        30.99344        -0.47903
O         31.80972        29.45718         1.09529
O         24.08473        39.67795         0.69332
O         15.67776        44.30431        -0.22570
H         16.32737        43.57630        -0.34983
O         13.78856        29.48344         2.82919
H         13.12537        29.24199         3.50962
O         10.19243        37.46515         2.78941
H         10.16398        38.41006         3.06387
O         14.16878        44.54485         3.09746
H         13.51728        43.97337         3.56418
O         36.44616        40.28427         2.07349
H         35.86337        40.96644         2.47184
O         14.12923        29.20057        -0.81334
H         14.59959        28.38099        -1.10215
O         12.20607        31.49760         2.54538
H         11.40937        31.19412         3.04318
O         38.31163        36.55863         2.89963
H         37.64375        37.27312         2.82919
O         10.70971        27.50912         3.80517
H         10.15748        28.28439         4.06286
O         32.52343        26.63259         4.02227
H         33.04154        27.05063         4.74580
O         32.74548        26.89423         0.40455
H         32.07707        26.81911        -0.30753
O         27.12032        34.29944         0.79201
H         27.30497        33.52802         0.21376
O         17.66558        37.08313         3.51042
H         18.02537        37.80665         4.07910
O         11.69088        29.02223        -0.18334
H         12.38871        29.31631        -0.82142
O         14.65801        18.72392        -1.44815
H         15.46579        19.25504        -1.29782
O         28.11721        14.99559         1.16397
H         28.11193        15.44571         2.03470
O         24.62663        31.37057        -0.35761
H         25.44426        30.92211        -0.68370
O         21.78030        33.55137         3.68389
H         22.61764        33.85717         4.09534
O         14.47422        34.38661        -1.29235
H         15.35403        34.13557        -1.69584
O         18.19044        28.18093         3.19504
H         18.55454        27.53028         3.84313
O         22.57569        20.56897         3.85390
H         22.04891        21.16990         4.42809
O         14.41937        39.45184         3.43750
H         14.12679        40.33286         3.77473
O         20.24836        27.14009        -0.32443
H         21.02158        27.27737        -0.91926
O         17.25994        13.63964        -0.00152
H         17.70766        12.79360        -0.24665
O         27.24470        44.38442         2.73323
H         27.74413        45.22028         2.58026
H          4.86744        31.26943         1.18624
H          4.90174        33.70460         0.77305
H          7.38721        26.92723         1.56889
H          6.08659        29.11232         1.45266
H          6.17312        35.81481         0.40497
H          7.48702        37.87291        -0.05508
H          9.72420        22.88300         1.34669
H          8.66164        24.88412         1.47733
H          8.68280        39.82855        -0.44418
H         10.34671        42.13142        -0.55585
H         12.61478        18.99533         0.60465
H         11.45566        20.70977         0.85832
H         11.26042        44.16313        -0.08264
H         12.36582        46.21218        -0.26254
H         16.03067        16.83532        -2.65808
H         13.49618        17.33250        -0.48063
H         13.64754        48.52308        -0.53398
H         14.84420        50.68365        -0.65143
H         17.63412        13.28190        -5.25452
H         16.67068        14.82603        -3.78033
H         16.09327        52.34498        -1.75842
H         17.19984        53.89746        -3.26489
H         20.19524        11.77015        -9.13305
H         18.80828        12.32495        -7.03861
H         18.29207        55.40860        -4.89980
H         19.34624        56.84045        -6.57666
H         23.60587        10.23794       -12.06662
H         21.47692        11.07205       -11.07040
H         22.38647        58.88935        -9.67418
H         20.38500        58.24422        -8.34305
H         25.63268         9.98807       -10.67640
H         26.62681         9.76030        -8.60469
H         25.97965        56.17841        -8.01866
H         24.59146        57.81936        -9.25358
H         27.71270         9.72167        -5.95429
H         29.26071        11.56532        -4.31245
H         28.58337        52.54669        -5.99273
H         27.30084        54.41699        -6.92855
H         30.40076        13.00255        -2.75707
H         31.62519        14.45801        -1.09897
H         31.10406        48.60354        -4.29088
H         29.88069        50.64315        -5.11722
H         32.85682        16.29061         0.01171
H         34.08189        18.25690         0.84221
H         33.69887        44.85337        -2.44702
H         32.34375        46.67192        -3.43044
H         35.24084        20.30203         0.79742
H         36.67793        22.59424         1.27861
H         36.30465        41.26158        -0.64647
H         34.99950        43.02324        -1.47669
H         37.81163        24.50088         1.94109
H         39.05094        26.56653         2.04825
H         37.92472        35.96198        -0.43803
H         37.43918        39.04810        -0.43570
H         40.29171        28.69253         1.92335
H         41.53911        30.82833         1.31795
H         41.51514        33.27148         1.38073
H         40.34843        35.25495         1.95931
