         314
 CSIRO Nanostructure Databank - Neutral Graphene Oxide Data Set
C         30.42703        57.01614        -0.76563
C         30.56261        58.40627        -1.32593
C         29.28889        59.15430        -1.60951
C         30.53766        61.26815        -1.63383
C         29.34403        60.50689        -1.81797
C         32.79213        52.85722         0.36285
C         32.75037        54.28855         0.39052
C         31.55532        54.97082         0.01371
C         32.64129        57.16993         0.37395
C         31.49039        56.37933        -0.13556
C         32.67780        58.64208         0.13892
C         31.52405        59.29175        -0.55996
C         32.83092        61.38975        -0.67188
C         31.66483        60.69386        -1.02303
C         35.30038        48.62898         0.37856
C         35.27386        50.01860         0.62988
C         34.05743        50.74964         0.44914
C         35.11130        52.84753         1.25499
C         33.95603        52.13384         0.66017
C         35.15639        54.37132         1.13218
C         33.94470        55.01328         0.62903
C         35.22120        57.20817         0.57588
C         33.93887        56.47682         0.66113
C         35.19729        58.61917         0.33608
C         33.97207        59.33328         0.15429
C         35.19908        61.43779         0.02230
C         33.98355        60.72682        -0.14355
C         37.72821        44.30016         0.22060
C         37.70395        45.70362         0.39092
C         36.50742        46.46535         0.33950
C         37.69387        48.57571         0.85760
C         36.49132        47.87955         0.51476
C         37.70051        49.97778         1.07711
C         36.47532        50.68931         1.01792
C         37.66925        52.89876         1.67642
C         36.40821        52.11049         1.43831
C         37.68976        54.46112         1.70660
C         36.44085        55.08796         1.08676
C         37.68728        57.17638         0.62515
C         36.43870        56.47219         0.78004
C         37.64696        58.55990         0.24080
C         36.43567        59.33581         0.21841
C         37.61461        61.59308         0.38381
C         36.42951        60.78068         0.17537
C         40.20131        40.04077        -0.08117
C         40.17507        41.44056         0.13165
C         38.96693        42.16320         0.11677
C         40.19364        44.27770         0.35237
C         38.94597        43.57511         0.24754
C         40.17554        45.69917         0.52211
C         38.94939        46.38073         0.61760
C         40.25658        48.57148         1.00103
C         38.92111        47.79265         1.00771
C         40.17341        50.05318         0.99756
C         38.96151        50.69346         1.23955
C         40.25121        52.92947         1.45106
C         38.96703        52.14015         1.58082
C         40.18712        54.40902         1.22326
C         38.98937        55.09247         1.18291
C         40.14243        57.13793         0.35884
C         38.95285        56.49155         0.74465
C         40.10390        58.45405        -0.29184
C         38.81025        59.09391        -0.33806
C         40.17261        61.56060         0.22677
C         38.85420        61.19520        -0.10841
C         42.60847        35.73667        -0.74617
C         42.21826        36.92614        -0.11499
C         41.29147        37.91386        -0.47038
C         42.63546        39.96875         0.27457
C         41.38273        39.28019        -0.01791
C         42.65397        41.40414         0.27254
C         41.42808        42.13619         0.25853
C         42.67755        44.24803         0.18813
C         41.43055        43.55505         0.31098
C         42.62319        45.70866        -0.02491
C         41.41033        46.45121         0.40920
C         42.64140        48.59935         0.16238
C         41.42842        47.82807         0.50833
C         42.60496        50.07603         0.36569
C         41.39222        50.81112         0.82852
C         42.71412        52.92466         0.90379
C         41.43229        52.18199         0.97506
C         42.77723        54.41092         1.01933
C         41.47572        55.14936         1.15657
C         42.68824        57.31289         0.32492
C         41.44789        56.60365         0.73816
C         42.64490        58.62151        -0.05479
C         41.37553        59.34134        -0.39050
C         42.58143        61.48059         0.07253
C         41.36093        60.82616        -0.10406
C         45.20936        33.09838        -1.16459
C         43.99154        33.77995        -1.08569
C         45.09376        35.74098        -0.10505
C         43.88786        35.10074        -0.56970
C         45.15891        37.13578         0.25639
C         43.99358        37.89531         0.53336
C         45.14436        40.00313         0.28511
C         43.89977        39.29544         0.36402
C         45.15076        41.41857         0.23954
C         43.89603        42.12727         0.23618
C         45.17849        44.24288        -0.31916
C         43.89060        43.54768         0.12207
C         45.19941        45.72787        -0.03133
C         43.93848        46.46206        -0.12866
C         45.16776        48.55562         0.25606
C         43.95368        47.89807         0.14484
C         45.19056        50.00902         0.53279
C         43.91103        50.74864         0.62069
C         45.16313        52.93141         0.11937
C         43.88871        52.20873         0.33263
C         45.13359        54.41934         0.23523
C         44.00231        55.12582         0.52414
C         45.18759        57.34259         0.00624
C         44.01602        56.65144         0.67653
C         45.16373        58.66652        -0.29978
C         43.87735        59.37002        -0.37970
C         45.17873        61.56648        -0.11221
C         43.87356        60.89161        -0.30793
C         46.38785        33.73542        -0.80947
C         47.58010        35.71765        -0.04365
C         46.36656        35.07324        -0.30423
C         47.64829        37.08039         0.57021
C         46.38225        37.84876         0.31138
C         47.61766        39.97156         0.33412
C         46.37655        39.26450         0.32807
C         47.61087        41.37534         0.38105
C         46.40067        42.11202         0.29856
C         47.62752        44.24480         0.24885
C         46.44111        43.54863         0.16198
C         47.65953        45.68627        -0.08055
C         46.38667        46.43397         0.02378
C         47.65791        48.59632         0.21919
C         46.41763        47.86286         0.14394
C         47.65754        50.00618         0.28241
C         46.44282        50.76972         0.31268
C         47.70824        52.88406         0.11027
C         46.42739        52.15293         0.22434
C         47.67869        54.35835        -0.09643
C         46.37630        55.09601        -0.21478
C         47.70350        57.28619        -0.23009
C         46.41571        56.57734        -0.28250
C         47.70429        58.73119        -0.49316
C         46.38666        59.45850        -0.61536
C         47.66183        61.61044        -0.28413
C         46.38572        60.92497        -0.31917
C         48.88133        37.85815         0.22255
C         50.09959        39.98618         0.07385
C         48.87865        39.23930         0.21965
C         50.15132        41.36755         0.27490
C         48.89222        42.07259         0.60022
C         50.21250        44.29653         0.48590
C         48.90613        43.58365         0.59623
C         50.16918        45.70292         0.47745
C         48.94823        46.43584         0.06354
C         50.15116        48.58063         0.33741
C         48.92595        47.90323         0.25211
C         50.20854        50.01358         0.33019
C         48.92602        50.71646         0.52590
C         50.31429        52.89133         0.61112
C         48.93708        52.20107         0.63912
C         50.19472        54.39711         0.34065
C         48.90782        55.14445         0.21735
C         50.13751        57.29676        -0.02222
C         48.90677        56.60451        -0.08554
C         50.15062        58.72899         0.27716
C         48.87736        59.49515         0.01241
C         50.17925        61.59497        -0.21775
C         48.90145        60.96356        -0.19147
C         51.34051        42.11746         0.15527
C         52.70478        44.13203         0.01280
C         51.43338        43.53203         0.31138
C         53.06703        45.43823         0.39828
C         51.29488        46.49855         0.77199
C         52.65976        48.52360         0.27242
C         51.40550        47.87165         0.43111
C         52.65428        49.95604         0.05655
C         51.39507        50.68172         0.08754
C         52.62967        52.88295        -0.37919
C         51.28575        52.15883        -0.32370
C         52.68762        54.35491        -0.14832
C         51.39554        55.07523        -0.24228
C         52.65269        57.30902        -0.41576
C         51.35829        56.57337        -0.37540
C         52.67604        58.73176        -0.07385
C         51.46401        59.47532         0.44910
C         52.65709        61.55303        -0.17536
C         51.41134        60.91459        -0.05681
C         53.99810        46.36421        -0.10084
C         55.10013        48.53855        -0.06278
C         53.91249        47.79207         0.09766
C         55.12665        49.95817        -0.06277
C         53.86881        50.64776        -0.09329
C         55.14832        52.83240        -0.00172
C         53.90607        52.10823        -0.29952
C         55.11757        54.27130         0.28247
C         53.87050        55.02401        -0.02727
C         55.15242        57.23161         0.10923
C         53.94300        56.49129        -0.25192
C         55.13731        58.64811         0.04517
C         53.89175        59.39000        -0.03956
C         55.13331        61.51064        -0.07030
C         53.90113        60.85128        -0.04588
C         56.33718        50.69745        -0.07143
C         57.58823        52.87186         0.04183
C         56.36480        52.12501         0.03344
C         57.67314        54.27126         0.17872
C         56.41913        55.02615         0.53699
C         57.44270        57.29964         0.80391
C         56.33495        56.53058         0.47204
C         57.56990        58.67906         0.46241
C         56.35668        59.37330         0.17954
C         57.62061        61.44564         0.06286
C         56.36872        60.79959         0.04409
C         58.90538        54.89545        -0.16321
C         60.08067        57.18067        -0.26812
C         59.26634        56.21263         0.25605
C         60.17114        58.55545         0.40245
C         58.83707        59.33491         0.35934
C         60.12290        61.50912         0.10950
C         58.82701        60.72798         0.15873
C         61.27639        59.34253        -0.26660
C         61.25704        60.67083        -0.40193
O         39.79117        52.45968         2.75613
O         43.77684        60.16570        -1.59529
O         53.32055        52.53817        -1.63245
O         48.88182        42.82147         1.86482
O         36.92376        52.33827         2.80236
O         38.73705        60.19363        -1.14278
O         44.27583        52.52225        -1.02972
O         58.52063        56.64040         1.39675
O         53.44804        56.92425        -1.57155
O         39.68792        48.03358         2.23398
O         42.46400        49.53520        -0.99053
O         48.77577        51.44399         1.85583
O         41.53713        56.20963         2.17255
O         49.20528        59.07722         1.37795
O         43.05099        53.56801         2.19151
O         47.16176        59.10507        -1.80274
O         48.45475        46.01410        -1.27578
O         47.92448        53.45821        -1.23068
O         40.81537        58.73751        -1.57190
O         49.56441        54.98333         1.53452
O         31.54764        59.24954         0.88844
O         51.13695        55.68319        -1.54090
O         55.65392        54.51097         1.66304
O         34.80579        53.65947         2.40306
O         33.01248        56.90606         1.76691
O         43.13437        46.09825        -1.35646
O         46.23356        55.74865        -1.52236
O         42.92274        37.21985         1.08689
O         52.31911        45.93025         1.50804
O         44.56977        50.35339         1.85388
O         37.67465        54.82857         3.10798
H         37.09517        54.17514         3.56564
O         50.71403        52.18314        -1.64154
H         51.45565        52.13790        -2.28739
O         51.69456        59.57907         1.88728
H         50.80943        59.70485         2.30261
O         47.70108        36.86425         2.04988
H         46.86856        36.41080         2.30416
O         60.54885        58.38984         1.79092
H         59.89338        57.77116         2.18884
O         59.97797        62.70062        -0.67141
H         59.83688        62.44133        -1.60448
O         44.20904        56.88420         2.10510
H         43.39146        56.56329         2.56272
O         31.23592        58.21682        -2.63523
H         30.58566        57.81017        -3.24640
O         50.92819        52.77994         1.90380
H         50.32823        53.19879         2.55920
O         45.17336        44.12500        -1.77878
H         44.45860        44.72572        -2.10066
H         29.59045        56.39999        -1.13432
H         28.34941        58.60044        -1.75440
H         30.54369        62.33406        -1.90316
H         28.43526        61.04116        -2.13342
H         31.90311        52.31311         0.01282
H         30.68241        54.36761        -0.27746
H         32.91427        62.46009        -0.91453
H         34.36931        48.11853         0.09306
H         33.17089        50.20336         0.09491
H         35.18904        62.53398        -0.06967
H         36.78286        43.75550         0.08246
H         35.55778        45.95024         0.13416
H         37.50927        62.54075         0.93026
H         39.25512        39.52697        -0.30674
H         38.01737        41.62013         0.00009
H         40.31659        62.51334         0.75765
H         41.93263        35.29250        -1.49256
H         40.47804        37.66770        -1.16887
H         42.56607        62.53505         0.38801
H         45.23295        32.07001        -1.55111
H         43.07610        33.28359        -1.43941
H         45.16914        62.63100         0.16729
H         47.35490        33.22546        -0.92531
H         48.51893        35.16975        -0.21987
H         47.64524        62.71089        -0.31832
H         49.83223        37.31448         0.11476
H         51.02909        39.43672        -0.13960
H         50.21394        62.67902        -0.41261
H         52.26711        41.57097        -0.07936
H         53.41717        43.53334        -0.57493
H         52.68880        62.63099        -0.40048
H         54.84130        45.99695        -0.70564
H         56.05279        47.99642        -0.15892
H         55.16115        62.60857        -0.14355
H         57.29165        50.15047        -0.08795
H         58.52144        52.31664        -0.13762
H         57.67049        62.54014        -0.03948
H         59.64387        54.29554        -0.71740
H         60.66912        56.98294        -1.17565
H         60.36903        61.84652         1.15482
H         62.14412        58.76890        -0.62782
H         62.09879        61.19703        -0.87763
