         404
 CSIRO Nanostructure Databank - Neutral Graphene Oxide Data Set
C          1.74910         2.13939        -3.12664
C          1.64015         3.41205        -2.54130
C          2.98788         1.55983        -3.33609
C          2.78067         4.14436        -2.17491
C          1.46561         5.92851        -1.07696
C          1.38774         7.09560        -0.28801
C          2.69718         5.44186        -1.50466
C          2.51947         7.85172        -0.07621
C          1.36463        10.88356         0.82132
C          1.31794        12.22400         0.48415
C          2.51183        10.13319         0.52147
C          2.45944        12.85900        -0.04439
C          1.22696        15.03357        -0.34090
C          1.21878        16.45012        -0.36108
C          2.39968        14.28318        -0.33843
C          2.39066        17.19771        -0.33855
C          2.43381        18.62017        -0.13801
C          4.17266         2.26879        -2.99501
C          4.06215         3.58420        -2.43887
C          5.44728         1.67686        -3.15728
C          5.24845         4.33078        -2.15745
C          3.90487         6.19116        -1.22866
C          3.80977         7.52102        -0.62177
C          5.15677         5.66089        -1.58630
C          4.92022         8.37135        -0.50794
C          3.66128        10.68897        -0.06978
C          3.66058        12.10477        -0.25563
C          4.84592         9.88064        -0.51419
C          4.91992        12.82222        -0.43039
C          3.66615        14.95911        -0.60092
C          3.66804        16.51086        -0.55306
C          4.91045        14.21357        -0.39253
C          4.90086        17.21648        -0.22561
C          3.61979        19.30186        -0.06991
C          4.89325        18.61287        -0.07816
C          6.61877         2.38284        -2.83558
C          6.49862         3.74172        -2.39863
C          7.89176         1.71881        -2.80835
C          7.71394         4.54446        -2.22781
C          6.36109         6.39321        -1.27612
C          6.27193         7.68249        -0.47224
C          7.60404         5.84865        -1.54099
C          7.48354         8.55739        -0.68353
C          6.14914        10.66125        -0.71224
C          6.18561        12.13307        -0.49559
C          7.43599         9.92620        -0.65443
C          7.39355        12.86039        -0.53881
C          6.14484        14.94215        -0.09934
C          6.13053        16.46284         0.02469
C          7.42450        14.26614        -0.32097
C          7.41188        17.17265        -0.08674
C          6.12451        19.29779         0.08968
C          7.36769        18.62541         0.02315
C          9.06321         2.35573        -2.39837
C          9.04887         3.83491        -2.29132
C         10.22701         1.62327        -2.03438
C         10.22782         4.51447        -1.67975
C          8.82417         6.51947        -1.11921
C          8.75740         7.88675        -0.75470
C         10.06295         5.85149        -1.08208
C          9.96685         8.60574        -0.50632
C          8.69911        10.68882        -0.79351
C          8.68480        12.18389        -0.83779
C          9.96342        10.01058        -0.46117
C         10.02549        12.93524        -0.70057
C          8.63120        15.01802        -0.25173
C          8.59581        16.46262        -0.16659
C          9.89015        14.34839        -0.19597
C          9.89185        17.21039        -0.38268
C          8.57880        19.31692         0.18261
C          9.83310        18.64939         0.09370
C         11.36249         2.20776        -1.43836
C         11.39780         3.68602        -1.26350
C         12.50146         1.47404        -1.07274
C         12.30044         4.25923        -0.22153
C         11.20522         6.48163        -0.49665
C         11.17718         7.88311        -0.26628
C         12.35511         5.73704        -0.09602
C         12.33678         8.56743         0.18367
C         11.13518        10.73138        -0.07269
C         11.12975        12.15332        -0.00091
C         12.31323         9.99626         0.28979
C         12.26413        12.84160         0.48760
C         11.07063        15.03129         0.16682
C         11.09492        16.46598         0.15407
C         12.26559        14.30884         0.53945
C         12.26540        17.15942         0.39606
C         11.01050        19.31780         0.29453
C         12.32635        18.63719         0.05057
C         13.63380         2.07488        -0.44053
C         13.46622         3.41149         0.18692
C         14.86322         1.44706        -0.35693
C         14.66111         4.09717         0.76329
C         13.46469         6.39412         0.45840
C         13.50302         7.82222         0.53152
C         14.63145         5.62537         0.95389
C         14.69104         8.51114         0.96903
C         13.47570        10.69011         0.72331
C         13.42812        12.09932         0.84378
C         14.68449         9.94975         1.05587
C         14.59588        12.79706         1.41946
C         13.39672        15.02931         0.94954
C         13.44529        16.46457         0.83231
C         14.55594        14.30514         1.52965
C         14.64145        17.19314         1.06160
C         13.44789        19.38812         0.77141
C         14.72585        18.59695         0.79924
C         16.05405         2.10487         0.14517
C         15.95785         3.44635         0.63991
C         17.28138         1.43950         0.08496
C         17.11585         4.13507         1.21980
C         15.91567         6.34473         1.10869
C         15.87836         7.75973         1.20515
C         17.11523         5.62202         1.32156
C         17.10703         8.43846         1.64179
C         15.86742        10.66693         1.35349
C         15.90301        12.08983         1.41707
C         17.10946         9.96244         1.70245
C         17.12825        12.77016         1.51511
C         15.86256        15.02331         1.72307
C         15.87493        16.50821         1.47597
C         17.16286        14.24078         1.68922
C         17.18686        17.18690         1.14777
C         15.93383        19.24347         0.58037
C         17.18525        18.56161         0.59740
C         18.56653         2.18347         0.25848
C         18.42936         3.38014         1.18742
C         19.74559         1.35492         0.67254
C         19.70403         4.13353         1.38268
C         18.34924         6.34040         1.40289
C         18.39036         7.73917         1.49098
C         19.64116         5.62194         1.48129
C         19.62361         8.49426         1.53753
C         18.39702        10.66338         1.56702
C         18.38740        12.07478         1.47788
C         19.61253         9.93551         1.56617
C         19.63742        12.78884         1.41473
C         18.42301        14.92686         1.31391
C         18.36443        16.32212         0.86150
C         19.62177        14.22892         1.22369
C         19.65819        17.03767         0.51248
C         18.39212        19.19139         0.32529
C         19.64872        18.51614         0.44666
C         20.95860         2.00483         0.95773
C         20.97606         3.44772         1.06500
C         22.19841         1.32474         1.08579
C         22.17198         4.15716         1.11422
C         20.86716         6.38932         1.12262
C         20.86567         7.83329         1.41160
C         22.16009         5.63651         1.00187
C         22.10805         8.52240         1.45699
C         20.85898        10.65102         1.53082
C         20.85963        12.09295         1.46507
C         22.08232         9.94486         1.55460
C         22.11915        12.82186         1.40739
C         20.87949        14.93331         1.03123
C         20.90555        16.32090         0.79309
C         22.11775        14.23292         1.19945
C         22.12605        17.05267         0.80970
C         20.85659        19.18247         0.44733
C         22.10434        18.48510         0.58507
C         23.41384         2.03363         1.22397
C         23.41656         3.47526         1.20567
C         24.64938         1.35272         1.33764
C         24.63169         4.21513         1.35267
C         23.41044         6.38539         1.22951
C         23.35011         7.78760         1.38427
C         24.61576         5.64349         1.33793
C         24.61847         8.54189         1.34800
C         23.32947        10.70199         1.78714
C         23.35306        12.15517         1.56259
C         24.64223         9.96908         1.75897
C         24.59976        12.84945         1.52680
C         23.35628        14.94683         1.20309
C         23.35052        16.37797         1.01514
C         24.58208        14.25399         1.38810
C         24.58466        17.10696         0.91299
C         23.30246        19.18124         0.49287
C         24.55307        18.51170         0.59985
C         25.86585         2.05894         1.43231
C         25.86971         3.49651         1.48081
C         27.10379         1.37418         1.50647
C         27.12021         4.16034         1.59075
C         25.85313         6.35443         1.72478
C         25.93503         7.81373         1.45710
C         27.13061         5.59296         1.95579
C         27.15140         8.56689         1.81211
C         25.90863        10.71207         1.59686
C         25.87867        12.11795         1.56109
C         27.14217         9.97659         1.65248
C         27.11620        12.82491         1.45174
C         25.81892        15.07035         1.70637
C         25.82368        16.44643         1.05820
C         27.13391        14.30400         1.53694
C         27.02056        17.13553         0.75697
C         25.75140        19.21062         0.39398
C         26.98752        18.53357         0.40022
C         28.33615         2.03470         1.37571
C         28.33528         3.48771         1.33630
C         29.53040         1.22258         1.46742
C         29.53236         4.30628         1.14278
C         28.46352         6.30167         2.23370
C         28.38251         7.84530         2.11946
C         29.61628         5.67951         1.47712
C         29.70038         8.60581         1.75193
C         28.37546        10.70073         1.45678
C         28.33589        12.12896         1.29586
C         29.59056         9.99853         1.31348
C         29.55300        12.81129         0.90252
C         28.37133        15.02311         1.06301
C         28.27546        16.44912         0.66046
C         29.55072        14.23080         0.64365
C         29.38626        17.09770         0.14481
C         28.18285        19.21329         0.05854
C         29.39417        18.52106        -0.09640
C         30.71259         1.59870         0.82687
C         30.66881         3.73677         0.52934
C         32.05249         1.24881         1.03069
C         31.95854         4.29434         0.59570
C         30.82707         6.39479         1.25166
C         30.88449         7.82382         1.35495
C         32.01753         5.69528         0.85055
C         32.05448         8.52662         0.98350
C         30.77181        10.65945         0.85900
C         30.70947        12.06968         0.61343
C         31.99580         9.94034         0.79734
C         31.87016        12.73715        -0.00245
C         30.67636        14.89304         0.16014
C         30.58124        16.32029        -0.21187
C         31.90846        14.20281        -0.09671
C         31.82784        17.05843        -0.58239
C         30.60214        19.20376        -0.43292
C         31.83436        18.54508        -0.60628
C         33.16252         2.04951         0.57974
C         33.14636         3.49642         0.40936
C         34.39676         1.38239         0.47983
C         34.37580         4.19453         0.25341
C         33.24832         6.37924         0.63845
C         33.28909         7.80540         0.71587
C         34.41756         5.63655         0.28962
C         34.50563         8.46943         0.44202
C         33.25223        10.68355         0.63812
C         33.20332        12.01645        -0.01148
C         34.57329         9.93285         0.53637
C         34.45451        12.77569        -0.16761
C         33.11777        14.86351        -0.34995
C         33.11992        16.34549        -0.38508
C         34.38906        14.18595        -0.41808
C         34.35686        17.09368        -0.77408
C         33.02006        19.20442        -0.96086
C         34.23890        18.49698        -1.25000
C         35.59908         2.04832         0.16160
C         35.59784         3.47806         0.06476
C         36.80607         1.32854        -0.01958
C         36.81479         4.16403        -0.19702
C         35.63279         6.32553         0.00842
C         35.66733         7.75533         0.03292
C         36.83647         5.59699        -0.26712
C         36.86134         8.45842        -0.35880
C         35.73418        10.64550        -0.02065
C         35.66801        12.06478        -0.17531
C         36.86207         9.88519        -0.40169
C         36.91263        12.82219        -0.39980
C         35.57772        14.89688        -0.78525
C         35.54178        16.29776        -1.14071
C         36.82754        14.20742        -0.89638
C         36.57583        16.89364        -1.82281
C         35.28716        19.06946        -1.92257
C         36.47141        18.28347        -2.42291
C         38.00300         1.99266        -0.29991
C         38.01509         3.42496        -0.39071
C         39.23103         1.26925        -0.49003
C         39.23516         4.10816        -0.66058
C         38.04470         6.27965        -0.55782
C         38.05681         7.71675        -0.67820
C         39.25616         5.53520        -0.75089
C         39.26893         8.36302        -1.02729
C         38.02432        10.58847        -0.96465
C         38.16897        12.05035        -0.72004
C         39.29181         9.80635        -1.30738
C         39.29761        12.73773        -1.36341
C         37.93063        14.78165        -1.53655
C         37.78856        16.12459        -2.11150
C         39.19819        14.09039        -1.68782
C         39.06744        16.91120        -2.42027
C         37.77806        19.03061        -2.27224
C         38.99231        18.39032        -2.31121
C         40.40035         1.92784        -0.74637
C         40.43710         3.36016        -0.83450
C         41.64292         4.04602        -1.08708
C         40.49087         6.19843        -0.99881
C         40.50714         7.64965        -1.09831
C         41.66579         5.43083        -1.16327
C         41.70230         8.36748        -1.24564
C         40.57475        10.52389        -1.36099
C         40.63413        12.04019        -1.28411
C         41.73098         9.78191        -1.29770
C         41.65289        12.70336        -2.16869
C         40.37539        14.80289        -2.14390
C         40.36494        16.22366        -2.25275
C         41.55739        14.03125        -2.44171
C         41.52322        17.01128        -2.21705
C         40.24125        19.09759        -2.22769
C         41.44691        18.42374        -2.21735
O          3.72560        15.76721        -1.82674
O         16.66904        17.18543         2.50829
O         29.21999         8.45202         3.13109
O         30.99282        16.49692        -1.63885
O         34.12175        10.55352         1.79928
O          6.04192        15.60959         1.23648
O         38.32048        10.23922        -2.34844
O         32.35901        12.02828        -1.20657
O         11.44983         4.42552        -2.52169
O         30.51163         2.56272        -0.19420
O         23.98869        10.23590         3.03933
O         17.63808         3.29809         2.37145
O         38.27822        16.30306        -3.49941
O          5.29978        10.30149        -1.86382
O         12.27177         3.51096         1.03340
O         25.40451         8.22635         0.14481
O         16.98712         9.15326         2.92272
O         37.92196        12.53099         0.64128
O         26.23899         5.93823         3.08435
O          8.67439        11.43645        -2.10370
O         28.11891        14.80654         2.51385
O          2.44775         8.80881         0.93781
O         14.39314         4.70914         2.06720
O         18.81270        16.43997        -0.53513
O          8.54728         4.55395        -3.45658
O         16.54169        14.67627         2.95779
O         14.23029        13.47202         2.68312
O         19.78521         4.81133         2.69142
O         33.96826        16.94891         0.64461
O         21.41381         6.07911        -0.20596
O         10.10808        17.28494        -1.83952
H          9.31478        17.70468        -2.23563
O         25.68137        15.34355         3.13571
H         26.59662        15.46195         3.48389
O          6.39423         7.25850         0.94388
H          5.66166         6.63180         1.12776
O         36.24592        18.09862        -3.86191
H         36.96279        17.49443        -4.17800
O         18.88371         2.81365        -1.05145
H         19.12071         2.09673        -1.67720
O         13.04799        19.66042         2.12675
H         13.18715        18.85180         2.66194
O         41.08777        12.28751         0.10697
H         41.02155        13.25268         0.27157
O         10.55105        13.11672        -2.05552
H         10.13489        12.41139        -2.61018
O         12.59843        18.71174        -1.37801
H         11.86986        18.22000        -1.83150
O         28.76886         5.99886         3.61682
H         27.96576         6.21377         4.14198
H          0.83451         1.59608        -3.40250
H          0.63516         3.82321        -2.37855
H          3.06886         0.55304        -3.76966
H          0.54385         5.36271        -1.26080
H          0.44463         7.37503         0.19837
H          0.50706        10.38460         1.28955
H          0.40424        12.79907         0.67986
H          0.25611        14.52785        -0.24424
H          0.25126        16.96755        -0.28494
H          1.48150        19.16514        -0.05861
H          5.51817         0.64175        -3.52260
H          3.61986        20.39401         0.05639
H          7.90760         0.63174        -2.98043
H          6.11853        20.38752         0.23671
H         10.20583         0.52950        -2.15696
H          8.56498        20.39514         0.40041
H         12.55815         0.40869        -1.34300
H         11.00351        20.38662         0.55618
H         14.97930         0.43842        -0.78063
H         13.60722        20.37364         0.26961
H         17.31456         0.42141        -0.33230
H         15.92385        20.31415         0.32640
H         19.68330         0.25707         0.68203
H         18.39413        20.26242         0.07242
H         22.21965         0.22586         1.04412
H         20.87741        20.27792         0.34791
H         24.66399         0.25279         1.32682
H         23.29134        20.26352         0.29704
H         27.09485         0.27593         1.56908
H         25.72134        20.28458         0.15897
H         29.48352         0.29545         2.05723
H         28.14373        20.29438        -0.14074
H         32.28833         0.32589         1.58156
H         30.56560        20.29862        -0.53850
H         34.42205         0.29231         0.62664
H         32.99519        20.29223        -1.12733
H         36.79494         0.23148         0.06062
H         35.20136        20.11138        -2.26788
H         39.21145         0.17187        -0.42156
H         37.75156        20.12946        -2.21460
H         41.33640         1.36797        -0.88724
H         42.57144         3.47356        -1.22430
H         42.62349         5.92838        -1.36567
H         42.66315         7.83745        -1.26718
H         42.70708        10.28707        -1.30537
H         42.55352        12.14378        -2.45966
H         42.37529        14.53066        -2.98234
H         42.50775        16.53109        -2.13024
H         40.22093        20.19577        -2.18672
H         42.38242        18.99845        -2.16598
