         621
 CSIRO Nanostructure Databank - Neutral Graphene Oxide Data Set
C          5.86091        31.77631         0.96145
C          5.81678        33.14823         1.01282
C          8.40953        27.55396         0.35186
C          8.35251        28.94067         0.39028
C          7.12366        29.64606         0.67194
C          8.27898        31.78900         0.34492
C          7.06072        31.02406         0.68663
C          8.21570        33.29429         0.38760
C          6.97073        33.98435         0.79178
C          8.15714        36.15585         0.69612
C          6.96816        35.36256         0.91826
C          8.21336        37.54250         0.76698
C         10.91683        23.31125         0.03787
C         10.89899        24.71527         0.00253
C          9.67820        25.44802         0.16486
C         10.87236        27.59518         0.01675
C          9.64064        26.84103         0.16051
C         10.83133        28.98878         0.09578
C          9.58872        29.69982         0.26057
C         10.82311        31.86785         0.49778
C          9.57728        31.08392         0.37849
C         10.75819        33.37866         0.48549
C          9.45909        34.06740         0.42909
C         10.60120        36.18679         0.17520
C          9.39826        35.45166         0.43568
C         10.70202        37.57482         0.42968
C          9.45227        38.27704         0.67804
C         10.69734        40.39784         0.83566
C          9.47077        39.66706         0.80318
C         10.73673        41.79690         0.85808
C         13.35243        19.01432        -0.33290
C         13.33460        20.43479        -0.27260
C         12.13743        21.16002        -0.12167
C         13.34358        23.29818        -0.35170
C         12.12069        22.57912        -0.12390
C         13.31579        24.71178        -0.43866
C         12.12077        25.42963        -0.25305
C         13.29064        27.59464        -0.47374
C         12.11381        26.88503        -0.24807
C         13.36579        29.01240        -0.11095
C         12.09208        29.74730         0.17044
C         13.26432        31.94331        -0.07806
C         12.11655        31.23562         0.12178
C         13.30130        33.43641         0.21182
C         11.94034        34.10153        -0.00749
C         13.52519        36.51090        -0.12350
C         11.70500        35.41689        -0.33477
C         13.25679        37.61134         0.63007
C         11.95308        38.27958         0.60473
C         13.15902        40.37528         1.15448
C         11.93993        39.66325         0.87918
C         13.20444        41.77205         1.09114
C         11.97101        42.50563         0.88751
C         13.23090        44.61714         0.73349
C         12.00199        43.90097         0.76566
C         13.24608        46.01532         0.56562
C         15.75050        14.75005        -0.83454
C         15.74705        16.13555        -0.78013
C         14.55635        16.87902        -0.56964
C         15.81373        19.01652        -0.49554
C         14.54934        18.29167        -0.49330
C         15.81786        20.43717        -0.40309
C         14.58239        21.15573        -0.36926
C         15.83253        23.25305        -0.55575
C         14.58077        22.56621        -0.45415
C         15.84695        24.70891        -0.77708
C         14.50991        25.40494        -1.04819
C         15.82475        27.65903        -0.43844
C         14.55705        26.91626        -0.80647
C         15.78017        29.11341        -0.11838
C         14.61644        29.79376        -0.25659
C         15.85026        32.02038        -0.26790
C         14.54411        31.27857        -0.57456
C         15.86855        33.36580        -0.11191
C         14.58468        34.13648        -0.26524
C         15.88811        36.17135         0.61624
C         14.70947        35.65040        -0.11079
C         15.69617        37.40348         1.44977
C         14.38004        38.15044         1.45491
C         15.66227        40.41218         1.75399
C         14.34677        39.64267         1.64465
C         15.69743        41.81771         1.32299
C         14.46709        42.49065         1.12410
C         15.70641        44.59141         0.74939
C         14.46776        43.89329         0.86552
C         15.68050        46.01022         0.59925
C         14.46262        46.74010         0.52725
C         15.65109        48.91116         0.22610
C         14.47512        48.16028         0.31105
C         15.69361        50.26135        -0.20474
C         18.23083        10.39943        -1.14569
C         18.21132        11.81919        -0.94189
C         16.99935        12.50863        -0.98416
C         18.31310        14.67895        -0.95475
C         16.96475        13.95910        -1.09027
C         18.23021        16.09966        -0.51650
C         17.03988        16.89540        -1.03199
C         18.25472        19.01717        -0.37390
C         17.03099        18.32120        -0.53210
C         18.28318        20.41705        -0.37153
C         17.06093        21.13693        -0.40728
C         18.28511        23.28995        -0.14836
C         17.04718        22.57473        -0.42394
C         18.27188        24.68361         0.11627
C         17.09908        25.44620        -0.34860
C         18.21403        27.57687         0.58706
C         16.99253        26.87418         0.06420
C         18.27956        29.07804         0.46882
C         17.05465        29.85031         0.09585
C         18.44517        31.92462        -0.39200
C         17.09807        31.19496        -0.64241
C         18.45780        33.41084        -0.06075
C         17.15249        34.22432        -0.22033
C         18.21857        36.01010         1.36117
C         17.04098        35.45323         0.66279
C         18.24137        37.44637         1.59001
C         16.96637        38.13830         1.78432
C         18.21852        40.33358         1.38310
C         16.95832        39.65546         1.84249
C         18.22479        41.80152         1.24798
C         16.95567        42.49130         1.16261
C         18.20624        44.52084         0.48087
C         16.93939        43.87057         0.86039
C         18.17558        46.01935         0.27206
C         16.94175        46.74817         0.67365
C         18.19738        48.95150         0.20779
C         16.93955        48.27308         0.55589
C         18.18308        50.23562        -0.29145
C         16.90890        50.93429        -0.44871
C         18.12594        52.97437        -1.11423
C         16.92469        52.29893        -0.81605
C         18.13379        54.36992        -1.37490
C         20.61693         6.17083        -1.93133
C         20.65832         7.55247        -1.69826
C         19.43371         8.29501        -1.55204
C         20.65741        10.18279        -0.49781
C         19.39960         9.62987        -1.12934
C         20.66511        11.71650        -0.36221
C         19.45826        12.52361        -0.67855
C         20.75260        14.65533        -0.33713
C         19.52119        13.90907        -0.59784
C         20.77884        16.04951        -0.22901
C         19.50064        16.78930        -0.13465
C         20.83289        18.99273        -0.07884
C         19.51249        18.28496        -0.07066
C         20.88100        20.45671        -0.28142
C         19.57971        21.16917        -0.62043
C         20.68947        23.24949         0.24522
C         19.49973        22.57483        -0.08738
C         20.63428        24.60970         0.68392
C         19.43979        25.36095         0.57580
C         20.68119        27.51512         0.82279
C         19.48700        26.81386         0.68753
C         20.75795        28.95222         0.57122
C         19.61427        29.67744         0.26503
C         20.96741        31.83852         0.26907
C         19.68341        31.09313        -0.11532
C         20.86573        33.26995         0.68096
C         19.64225        33.95992         0.63867
C         20.76571        36.05288         1.53939
C         19.52765        35.26054         1.33842
C         20.77326        37.41220         1.72893
C         19.49356        38.16142         2.03991
C         20.78869        40.33404         1.53286
C         19.51272        39.57777         1.46923
C         20.73862        41.76495         1.30119
C         19.47614        42.45747         1.10492
C         20.70847        44.56293         0.68464
C         19.50149        43.85192         0.75057
C         20.73079        46.01372         0.36147
C         19.45916        46.77781         0.20115
C         20.73114        48.91850         0.08635
C         19.47408        48.25240         0.59975
C         20.69556        50.22463        -0.48271
C         19.42025        50.91273        -0.65489
C         20.57652        52.86555        -1.65984
C         19.36683        52.22446        -1.11268
C         20.56322        54.34596        -1.89378
C         19.31129        55.09034        -1.66118
C         20.56787        57.21924        -1.77712
C         19.35039        56.49286        -1.77475
C         20.51143        58.73714        -1.86689
C         23.09112         3.34386        -2.53577
C         21.88020         3.98362        -2.36825
C         23.16466         6.20294        -2.29663
C         21.79284         5.43887        -2.37497
C         23.14806         7.54675        -1.70065
C         21.92378         8.22899        -1.55478
C         23.15901        10.22177        -0.59015
C         21.91233         9.71583        -1.29619
C         23.24716        11.70436        -0.51977
C         21.97376        12.44853        -0.39097
C         23.21736        14.57117        -0.43723
C         22.01236        13.92903        -0.44857
C         23.29243        15.99733         0.03688
C         22.02800        16.80060        -0.22046
C         23.33202        18.95058        -0.33114
C         22.06427        18.18091        -0.22119
C         23.36067        20.41739        -0.04505
C         22.08340        21.16325        -0.16304
C         23.06783        23.48655         0.06968
C         21.95816        22.60617         0.01417
C         23.12287        24.62624         0.84533
C         21.85367        25.25049         1.17909
C         23.23473        27.46566         1.08387
C         21.91040        26.81463         1.21592
C         23.24180        28.84791         0.91724
C         22.03739        29.62364         0.72750
C         23.30732        31.72049         1.09390
C         22.09423        31.02710         0.76299
C         23.27055        33.16382         1.29650
C         22.02894        33.86180         1.26134
C         23.25378        36.02555         2.08657
C         21.98131        35.25767         1.74967
C         23.23509        37.49895         1.93290
C         22.01994        38.16920         1.81291
C         23.25875        40.36751         1.77808
C         21.97752        39.62667         1.71490
C         23.23899        41.86232         1.52262
C         21.94251        42.50846         1.23023
C         23.21302        44.60278         0.88395
C         21.94871        43.89984         0.95240
C         23.20636        46.08979         0.94736
C         21.92334        46.82807         0.75403
C         23.18066        48.90218         0.03822
C         21.93875        48.24902         0.29259
C         23.15778        50.22813        -0.48988
C         21.92007        50.85851        -0.79353
C         23.14038        53.00552        -1.40659
C         21.91335        52.16906        -1.48599
C         23.11403        54.36596        -1.46454
C         21.87760        55.11912        -1.79763
C         23.03078        57.35223        -1.40269
C         21.79563        56.57538        -1.59885
C         23.04492        58.78166        -1.93498
C         21.77834        59.32291        -2.45331
C         23.05436        60.96628        -3.71734
C         21.80301        60.37576        -3.31929
C         24.32941         4.02431        -2.51556
C         25.61520         6.07382        -1.99432
C         24.40626         5.40690        -2.25246
C         25.64290         7.44793        -1.60764
C         24.40016         8.12606        -1.37408
C         25.71505        10.16282        -0.68975
C         24.44967         9.44568        -0.74899
C         25.69714        11.59216        -0.35447
C         24.43521        12.35836        -0.52289
C         25.77201        14.54409        -0.66370
C         24.44393        13.82928        -0.91993
C         25.76544        15.98786        -0.32536
C         24.60220        16.68408        -0.26434
C         25.85388        18.80968         0.20003
C         24.63159        18.16884        -0.31829
C         25.77908        20.12945         0.59584
C         24.61888        20.94135         0.29623
C         25.80662        23.00000         1.15723
C         24.91395        22.36314         0.34392
C         25.69225        24.44751         1.52679
C         24.38779        25.22774         1.36604
C         25.69666        27.32336         1.47020
C         24.45714        26.70977         1.30362
C         25.77982        28.78575         1.27372
C         24.52300        29.56621         0.95802
C         25.74882        31.69348         1.44130
C         24.49854        31.01522         1.21472
C         25.73643        33.15113         1.42084
C         24.48458        33.84879         1.48113
C         25.81640        36.01211         1.79888
C         24.53052        35.26520         1.92255
C         25.84472        37.50965         1.80554
C         24.52290        38.24261         1.90711
C         25.71279        40.32938         1.20178
C         24.53282        39.66602         1.54477
C         25.67411        41.75504         0.91893
C         24.48792        42.48121         1.02041
C         25.65321        44.62192         0.42590
C         24.41319        43.90058         0.78053
C         25.76497        46.08134         0.67662
C         24.47790        46.87173         0.80613
C         25.63716        48.89586        -0.06544
C         24.43198        48.24270         0.26800
C         25.62740        50.24705        -0.47051
C         24.40385        50.91509        -0.69268
C         25.68741        53.05920        -1.19819
C         24.43705        52.24363        -1.38800
C         25.66057        54.45257        -1.33411
C         24.36097        55.13929        -1.21972
C         25.60216        57.32575        -1.64589
C         24.34377        56.63949        -1.25601
C         25.52284        58.64613        -2.21346
C         24.33002        59.30639        -2.44715
C         24.25695        60.47134        -3.29165
C         26.86399         8.13112        -1.39831
C         28.17799        10.20915        -0.95259
C         26.92475         9.50727        -1.01234
C         28.26581        11.57395        -0.62885
C         27.01097        12.30357        -0.31562
C         28.26761        14.44740         0.01306
C         27.04347        13.78409        -0.50119
C         28.23063        15.79074         0.30151
C         27.12345        16.67257        -0.27027
C         28.20035        18.63648         0.86818
C         27.05737        18.03516         0.38427
C         28.22827        20.04992         1.17215
C         26.92847        20.73543         1.31395
C         28.21078        22.90261         1.90917
C         26.90424        22.18409         1.72819
C         28.20885        24.41844         1.97838
C         26.95655        25.20183         1.74517
C         28.19879        27.36363         1.86929
C         26.92775        26.58713         1.75060
C         28.21605        28.81322         1.59185
C         26.92643        29.51762         1.93787
C         28.19538        31.70252         1.85336
C         26.92102        30.99553         1.65029
C         28.19482        33.19129         1.70973
C         26.93428        33.85398         1.38994
C         28.19708        36.05006         1.02981
C         26.89252        35.31081         1.01457
C         28.21363        37.42906         0.94102
C         27.00824        38.20541         1.20660
C         28.20874        40.27257         0.66489
C         26.96597        39.57983         1.00703
C         28.20325        41.68526         0.56914
C         26.88936        42.33597         0.20004
C         28.20594        44.60772         0.31554
C         26.94549        43.86436         0.16733
C         28.19837        46.01476         0.15270
C         26.97138        46.71963         0.14773
C         28.19461        48.82676        -0.52724
C         26.89457        48.12276        -0.22981
C         28.21463        50.31340        -0.41959
C         26.89604        51.01573        -0.50788
C         28.14731        53.11941        -1.05911
C         26.90908        52.41296        -0.96281
C         28.09929        54.51586        -1.29293
C         26.87050        55.20495        -1.36262
C         26.79745        56.62990        -1.60130
C         29.45990        12.31453        -0.55597
C         30.71245        14.38496        -0.04957
C         29.50713        13.68826        -0.12612
C         30.76186        15.69205         0.59716
C         29.42933        16.40829         0.88287
C         30.69877        18.63147         0.87927
C         29.43808        17.88227         1.28316
C         30.66106        20.01037         0.88574
C         29.43262        20.73638         1.15988
C         30.64550        23.02122         1.04090
C         29.49970        22.18958         1.50291
C         30.70224        24.39757         1.20630
C         29.55568        25.13090         1.81806
C         30.67716        27.35932         1.17512
C         29.53821        26.63569         1.76738
C         30.61545        28.73883         1.06031
C         29.40563        29.46794         1.37176
C         30.70754        31.68689         1.21556
C         29.47466        30.94269         1.58707
C         30.72587        33.12286         1.15864
C         29.49444        33.89707         1.37755
C         30.66650        35.94952         0.37460
C         29.39516        35.24369         0.74405
C         30.62257        37.41994         0.34527
C         29.45673        38.12108         0.60264
C         30.65531        40.28124         0.27037
C         29.43451        39.56947         0.52920
C         30.62677        41.70892         0.30857
C         29.41810        42.39868         0.49665
C         30.73515        44.61560         0.62710
C         29.40933        43.87250         0.85861
C         30.73010        46.11352         0.31711
C         29.44387        46.77750         0.04592
C         30.69739        48.86111        -0.50208
C         29.46214        48.11475        -0.29048
C         30.65630        50.25086        -0.80202
C         29.46442        51.01955        -0.78692
C         29.39512        52.40001        -1.00420
C         31.96915        16.54303         0.53156
C         33.24162        18.67205         0.66385
C         31.93287        17.90280         0.64732
C         33.12874        20.13784         0.27884
C         31.79854        20.79066         0.34263
C         32.96560        23.06317        -0.02245
C         31.71807        22.30513         0.30185
C         33.04589        24.49223         0.30081
C         31.85215        25.19403         0.75442
C         33.03120        27.36410         0.39520
C         31.84635        26.59957         0.77830
C         33.03738        28.73710         0.38265
C         31.74043        29.51241         0.42203
C         33.14473        31.62521         0.95500
C         31.84180        30.94672         0.91424
C         33.19070        33.12358         1.07535
C         31.91581        33.85716         0.87984
C         33.16262        36.00487         0.52500
C         31.93925        35.23427         0.60709
C         33.12502        37.38310         0.31807
C         31.87458        38.09306        -0.14550
C         33.13659        40.25412        -0.03867
C         31.89116        39.57988         0.09607
C         33.14351        41.70838        -0.28873
C         31.83941        42.46654        -0.06765
C         33.14336        44.58881        -0.06251
C         31.93292        43.89880         0.20135
C         33.14209        46.01464        -0.20598
C         31.96329        46.76065        -0.18273
C         31.90974        48.13938        -0.51217
C         34.26469        20.83728         0.04149
C         35.52444        23.04642        -0.07005
C         34.28898        22.28937        -0.22112
C         35.51247        24.44489        -0.11176
C         34.24485        25.14437         0.05005
C         35.55860        27.31837        -0.14433
C         34.24538        26.61207        -0.02150
C         35.55465        28.76654         0.18857
C         34.25092        29.50623        -0.12818
C         35.56849        31.68623         0.08534
C         34.36410        30.89315         0.49425
C         35.66242        33.12567         0.33407
C         34.48437        33.86754         0.80387
C         35.62048        35.93989         0.11769
C         34.43925        35.30846         0.52650
C         35.56246        37.38409        -0.18374
C         34.41486        38.14590         0.45242
C         35.62138        40.29179        -0.11017
C         34.36341        39.58295         0.00929
C         35.61190        41.72243        -0.12666
C         34.41408        42.45474        -0.17816
C         34.36477        43.85898        -0.20352
C         36.75091        25.16263        -0.15211
C         38.05286        27.26991        -0.07708
C         36.84618        26.57638        -0.09897
C         38.19492        28.72158         0.34688
C         36.86119        29.47792         0.30917
C         38.12542        31.67427        -0.09324
C         36.86781        30.92726        -0.06033
C         38.08541        33.06121        -0.19016
C         36.84794        33.79875         0.01878
C         38.07681        35.94808        -0.30474
C         36.84577        35.23379        -0.05531
C         38.09955        37.34255        -0.35501
C         36.87337        38.13794        -0.38373
C         36.83389        39.58588        -0.16221
C         39.32250        29.52180        -0.27507
C         40.53457        31.67011        -0.59594
C         39.33867        30.90190        -0.29213
C         40.52114        33.03195        -0.62650
C         39.31050        33.80110        -0.41399
C         39.29448        35.18434        -0.44670
O         18.79227        32.89008        -1.39608
O         32.31844        42.10879        -1.42378
O         14.76200        37.30123         2.57682
O         33.47048        22.75107        -1.34900
O         15.42829        27.50388        -1.83958
O         17.02074        38.89024         3.06406
O         18.68071        35.20991         2.55548
O         33.99965        33.56871         2.19388
O         29.01265        31.23238         2.96782
O         25.40191        38.03329         3.08517
O         12.60687        36.14730        -1.11116
O         29.09200        22.35310         2.90790
O         21.29704        12.09536         0.90444
O         18.81581        39.66941         0.18484
O         26.58254        21.16303         2.70099
O         22.43990         6.08501        -3.53519
O         24.23237        23.12972        -0.60087
O         18.56057        16.24646         0.88587
O         21.77039        25.99506         2.41296
O         29.05655        27.15102         3.04073
O         22.95577        58.49405        -0.49529
O         35.94255        37.74391        -1.51025
O          8.10233        32.56925        -0.91272
O         24.08684        18.66412        -1.58583
O         17.50830        29.84074         1.48580
O         25.47298        35.41803         3.06281
O         23.33777        41.33386         2.88506
O         20.70116        31.42482        -1.10652
O         25.35565        46.63538         1.96539
O         30.92881        45.61078         1.69131
O         21.27877        54.73363        -3.09400
O         20.24554        46.42374        -0.96430
O         18.01929        45.14273        -0.86583
O         10.91193        32.62773         1.77596
O         36.06934        29.13318         1.50325
O         16.99991        30.94339        -2.01419
O         25.50928        29.19915        -0.09545
O         30.08178        15.62302         1.92154
O         31.30127        21.50528        -0.85296
O         21.19757        52.13134        -2.75984
O         17.77338        14.43305        -2.27574
O         17.02142        47.59289         1.86064
O         36.04903        31.26438        -1.23365
O         34.06717        30.94313         1.90179
O         29.81097        35.28456        -0.65975
O         29.04676        24.75539         3.12347
O         24.53069        51.48221        -2.60360
O         17.18260        27.06595         1.49888
O         26.67944        14.28522        -1.84058
O         28.97176        33.89361         2.74337
O         16.83911        25.16287        -1.76193
O         24.76025        24.64375         2.66245
O         27.41610        48.31314        -1.63880
O         12.90041        29.23556         1.29869
O         24.35990        55.93759         0.03491
O         20.10840        18.71969         1.20466
O         26.10938        44.36489        -0.94877
O         22.44061        35.44870         3.14548
O         26.37564        11.92101         0.94359
O         27.61154        50.84062         0.80090
O         14.73326        34.96527        -1.42749
O         22.40364        46.57536         2.09924
O         34.76948        27.06612        -1.35792
O         23.62816         9.49245         0.54262
O         14.81007        40.15998         2.91781
O         19.56198        48.24446         2.05278
H         19.23558        49.10141         2.39651
O         31.85705        37.93002        -1.61669
H         31.09908        38.44444        -1.96769
O         34.76106        38.17573         1.88256
H         33.99025        38.52668         2.37648
O         29.40337        17.92997         2.73917
H         29.84524        17.10678         3.05668
O         29.18525        43.84817         2.30522
H         29.60272        44.66692         2.66749
O         34.23358        18.02548        -0.13407
H         33.98823        18.13135        -1.07602
O         20.71749         9.60659         0.81295
H         21.18015        10.25297         1.39741
O         26.70533        41.89577        -1.18521
H         26.22034        42.61995        -1.64928
O         13.48056        33.52429         1.66421
H         12.69519        33.09074         2.08643
O         34.06480        29.65178        -1.55475
H         34.23461        28.75874        -1.95079
O         31.35640        29.67172        -0.99652
H         32.19400        29.81552        -1.50843
O         27.54229        16.93299        -1.64471
H         27.38967        16.09499        -2.14506
O         14.43043        31.30587        -2.02320
H         15.36263        31.11993        -2.36455
O         38.58141        28.62472         1.75718
H         37.74441        28.54121         2.27225
O         26.44069        35.37322        -0.38538
H         27.20756        35.16549        -0.96315
O         23.33125        15.88603         1.51127
H         22.47245        15.51477         1.81028
O         19.62223        21.29174        -2.09481
H         20.33095        21.93015        -2.32436
O         21.88643        10.39534        -2.58083
H         21.27710         9.90961        -3.17604
O         26.73896        29.37418         3.37010
H         27.51885        29.78360         3.80985
O         17.19930        34.76781        -1.55596
H         17.42462        34.02425        -2.16311
O         17.20354        17.03374        -2.47023
H         17.25225        16.11987        -2.84609
O         19.49057        38.28941         3.48624
H         19.33092        37.40083         3.87155
O         24.25392        13.79482        -2.36875
H         25.14955        13.81049        -2.78212
O         19.35829        59.15257        -2.59281
H         19.39287        58.75410        -3.48635
O         14.28021        25.24834        -2.47465
H         15.01440        25.73003        -2.92143
H          4.93817        31.20786         1.15302
H          4.86164        33.64221         1.24670
H          7.48548        26.97172         0.48887
H          6.21944        29.05454         0.88304
H          6.03819        35.87851         1.20303
H          7.29136        38.11401         0.95444
H          9.97508        22.76421         0.19458
H          8.74374        24.88456         0.30867
H          8.52266        40.21773         0.89555
H          9.79764        42.36746         0.80338
H         12.39891        18.46756        -0.27612
H         11.18809        20.61509        -0.00880
H         11.05857        44.45529         0.65281
H         12.29248        46.55598         0.47536
H         14.81505        14.20040        -0.64748
H         13.60308        16.33622        -0.47512
H         13.51417        48.65830         0.11226
H         14.74731        50.79555        -0.37797
H         17.28916         9.91792        -1.45195
H         16.05321        11.94830        -0.97327
H         15.97391        52.85016        -0.86591
H         17.18508        54.92159        -1.29187
H         19.67132         5.62578        -1.79213
H         18.49506         7.80763        -1.85704
H         18.40881        57.06196        -1.76456
H         20.40552        59.14887        -0.82483
H         23.10577         2.24601        -2.59616
H         20.96514         3.40055        -2.19054
H         23.03009        61.83763        -4.38641
H         20.86125        60.80342        -3.69169
H         25.25960         3.44135        -2.57116
H         26.56397         5.52326        -2.07734
H         26.45287        59.08810        -2.60337
H         25.19684        60.93117        -3.62987
H         27.80645         7.59424        -1.58269
H         29.09798         9.65282        -1.18468
H         29.03995        55.08023        -1.37729
H         27.73113        57.16081        -1.84292
H         30.41433        11.80758        -0.76262
H         31.64432        13.92540        -0.40985
H         31.60767        50.75817        -1.02455
H         30.32486        52.96030        -1.18808
H         32.93919        16.05682         0.34250
H         33.61901        18.63376         1.72564
H         34.08666        46.51082        -0.47349
H         32.84216        48.65703        -0.78237
H         35.23008        20.30868         0.08523
H         36.47751        22.50666         0.03072
H         36.57198        42.25971        -0.12701
H         35.30537        44.42601        -0.26380
H         37.68042        24.57496        -0.18549
H         38.98212        26.67809        -0.06962
H         39.06760        37.86582        -0.37989
H         37.78315        40.14210        -0.13291
H         40.25641        28.97945        -0.48917
H         41.47269        31.12414        -0.77351
H         41.45153        33.58291        -0.83021
H         40.23192        35.73197        -0.62721
