         236
 CSIRO Nanostructure Databank - Neutral Graphene Oxide Data Set
C        -10.95489         0.59757        -1.12639
C        -10.02840         1.62660        -0.68242
C         -8.43303         0.68273         0.45766
C         -7.24381         1.36139         0.25757
C         -5.97551         0.60644         0.36436
C         -4.63915         1.35892         0.53003
C         -3.77466         0.73891         1.69929
C         -2.42145         1.41723         1.62809
C         -1.24013         0.73597         1.38060
C          0.02557         1.40856         1.16140
C          1.21666         0.76454         0.71977
C          2.39249         1.50200         0.36759
C          3.72082         0.77529         0.34077
C          4.78911         1.50322        -0.44652
C          6.07914         0.76742        -0.69488
C          7.35043         1.47411        -0.40136
C          8.54361         0.71432        -0.39331
C          9.74115         1.29819         0.33027
C         11.07150         0.56277         0.36810
C         -9.43687         2.66765        -1.33385
C         -8.32004         3.42398        -0.74575
C         -7.20910         2.77974        -0.02046
C         -6.04372         3.49060         0.28933
C         -4.80538         2.86864         0.75747
C         -3.72499         3.59480         1.21556
C         -2.51537         2.91733         1.89420
C         -1.17670         3.64283         1.68127
C          0.07884         2.86998         1.39360
C          1.18158         3.66897         0.73321
C          2.43967         2.92396         0.40427
C          3.65518         3.62169         0.31098
C          4.81875         2.99761        -0.33786
C          6.15182         3.72660        -0.53381
C          7.37264         2.86868        -0.22303
C          8.66873         3.52213        -0.10321
C          9.83857         2.76425         0.02271
C         -8.23612         4.76229        -1.06784
C         -7.20425         5.61181        -0.54448
C         -6.14570         4.96602         0.27443
C         -4.99576         5.78824         0.77557
C         -3.76349         5.12149         1.41770
C         -2.44127         5.80925         1.00415
C         -1.16085         5.08367         1.22798
C          0.09617         5.50256         0.47880
C          1.36642         5.09780         1.18113
C          2.55299         5.72911         0.97680
C          3.82840         4.91632         1.06989
C          5.10937         5.70982         0.75455
C          6.28693         5.00378         0.25949
C          7.52572         5.71617         0.04721
C          8.71073         4.94168        -0.15079
C         -7.26612         6.97446        -0.68594
C         -6.16813         7.85892        -0.26909
C         -4.93932         7.23042         0.32677
C         -3.59034         7.85487        -0.00870
C         -2.47805         6.78414        -0.17754
C         -1.15141         7.51581        -0.36619
C          0.02908         6.90944        -0.03549
C          1.25654         7.72787         0.09919
C          2.56520         7.02502         0.25711
C          3.82601         7.77887         0.01947
C          5.11681         7.22624         0.54434
C          6.40480         8.00676         0.25067
C          7.58488         7.10900         0.01394
C         -6.04130         9.19094        -0.93046
C         -4.84418         9.67175        -1.28840
C         -3.64866         8.74739        -1.28547
C         -2.33385         9.43892        -1.43527
C         -1.15007         8.86713        -0.95251
C          0.06190         9.56866        -1.12804
C          1.28618         9.13589        -0.48035
C          2.58874         9.73981        -0.84618
C          3.78118         9.15342        -0.55711
C          5.04921         9.67345        -1.05504
C          6.23276         9.08226        -0.79714
C        -10.89241        -0.69670        -0.69457
C         -9.80532        -1.38914         0.00315
C         -8.59494        -0.74287         0.42599
C         -7.45238        -1.51412         0.74051
C         -6.14019        -0.82132         0.79058
C         -4.99761        -1.55915         1.38232
C         -3.72473        -0.80657         1.64818
C         -2.50187        -1.53265         1.25307
C         -1.22800        -0.75902         1.32135
C          0.04056        -1.44264         0.92885
C          1.27008        -0.68231         0.60456
C          2.41617        -1.39101         0.26000
C          3.66927        -0.71046         0.03891
C          4.82752        -1.41703        -0.17095
C          6.06270        -0.73903        -0.58359
C          7.34998        -1.44540        -0.55019
C          8.46655        -0.66279        -0.75450
C         10.27780        -1.74445        -0.01341
C         11.28489        -0.77184         0.42115
C         -9.83129        -2.79123         0.00953
C         -8.70078        -3.58682         0.36910
C         -7.49731        -2.91038         0.75147
C         -6.28046        -3.68966         1.06189
C         -4.97991        -2.99111         1.04842
C         -3.79046        -3.64410         0.86649
C         -2.55522        -2.85980         0.87158
C         -1.36788        -3.50381         0.24947
C         -0.06137        -2.78716         0.29282
C          1.20451        -3.51708         0.08940
C          2.40150        -2.84417         0.06408
C          3.64225        -3.60195        -0.01116
C          4.93371        -2.86619         0.24151
C          6.14951        -3.63519        -0.24720
C          7.44073        -2.95464        -0.68310
C          8.65200        -3.63224         0.00086
C          9.83292        -2.91900         0.50773
C         -8.69559        -4.99284         0.17823
C         -7.53039        -5.80201         0.34051
C         -6.29026        -5.18032         0.87474
C         -4.98941        -5.86146         0.64386
C         -3.78991        -5.09030         0.62841
C         -2.58071        -5.76325         0.43438
C         -1.35059        -5.01390        -0.02092
C         -0.06413        -5.61080         0.57419
C          1.13477        -4.96906        -0.07998
C          2.41974        -5.74167        -0.18714
C          3.65459        -4.97141        -0.04985
C          4.90254        -5.73933         0.31338
C          6.14337        -4.98978        -0.12574
C          7.39349        -5.74516        -0.19553
C          8.60639        -4.99771         0.08614
C         -7.47634        -7.13498        -0.00746
C         -6.27824        -7.99340         0.32406
C         -4.96340        -7.23239         0.33762
C         -3.72782        -7.93266         0.18371
C         -2.52826        -7.17942         0.38351
C         -1.23151        -7.79527         0.56718
C         -0.03264        -7.11314         0.53618
C          1.24063        -7.78975         0.51461
C          2.42696        -7.19315         0.13275
C          3.64858        -7.91476        -0.18640
C          4.87004        -7.18620        -0.16096
C          6.08961        -7.81649        -0.48674
C          7.34814        -7.10948        -0.34917
C         -6.19708        -9.20708        -0.55893
C         -5.01841        -9.76645        -0.88945
C         -3.72622        -9.26472        -0.42855
C         -2.61649       -10.01557        -0.81948
C         -1.27893        -9.84828        -0.33654
C         -0.08542       -10.25493        -0.91665
C          1.20035        -9.83433        -0.42173
C          2.41997        -9.97899        -1.05402
C          3.62845        -9.25594        -0.70566
C          4.86800        -9.83386        -1.08586
C          6.06700        -9.16328        -0.93065
O         -2.75439         5.89747        -1.27902
H         -2.93711         6.44103        -2.08434
O         -3.20516         8.69477         1.08602
H         -4.01664         8.90220         1.60227
O         -3.89666         1.22064        -0.69354
H         -4.30666         0.48478        -1.20737
O         -3.88490         5.35490         2.83012
H         -4.82915         5.21230         3.06616
O         -4.52829        -1.34855         2.74599
O         -0.23593         3.33018         2.76118
O         -1.60758         6.12774         2.14084
O         -3.85681         7.89399        -2.47361
H         -3.80970         8.47598        -3.26141
O         -1.32709        -5.22814        -1.44641
H         -0.96463        -4.40563        -1.85582
O         -0.32945        -1.36451         2.34442
O          4.92735        -5.74747         1.78905
H          5.67613        -6.31952         2.06311
O          4.22246         0.82760         1.72227
H          3.61673         0.30382         2.28968
O          5.97691        -0.01493        -1.91201
O          6.23050         4.09981        -1.94157
H          5.68338         3.44914        -2.44204
O          9.33842         1.21983         1.76755
H          8.59707         1.85053         1.89808
O          1.23462        -9.16192         0.82549
O         -0.90667        -2.74968        -0.93430
O         -6.14380         5.54265         1.64374
O          1.12081         8.87530         0.98215
O          7.59382        -3.21690        -2.10816
H          8.41250        -2.75482        -2.39465
O          0.43318         4.33505        -0.45932
O          9.63631        -1.29957        -1.19089
O          5.22355         6.68994         1.89011
O          5.09789        -2.82404         1.70517
H          5.03471        -3.76079         2.01955
O          0.01651        -5.21528         1.97188
H         -0.59861        -5.77080         2.49535
O         -1.21502        -9.15800         0.89198
O          3.28533         6.84283        -1.01928
O         -4.48329         1.08456         2.89815
H         -3.96736         1.76828         3.39528
O         -2.77329         3.03062         3.33033
H         -1.89376         3.07866         3.77353
O          3.98918         4.48043         2.45021
H          4.24304         5.27370         2.97319
O         -5.81322        -0.45737        -0.63962
O          4.36745         2.29062        -1.57661
O         -6.50254        -8.47642         1.69386
H         -6.56679        -7.68831         2.27520
O          6.71872         8.75148         1.47407
H          6.55665         8.13026         2.22105
O         -5.81704         8.04270         1.16815
O         -9.59803         1.43115         0.64903
O         -6.43480        -4.60871         2.21774
O          1.57835        -5.45516        -1.37652
H         12.28228        -1.13947         0.71524
H         11.91318         1.21233         0.66290
H         10.80968         3.27686         0.09479
H          9.68070         5.45467        -0.22736
H          8.55874         7.59610        -0.14561
H          7.15251         9.49157        -1.24094
H          5.00571        10.54103        -1.73148
H          2.57143        10.69421        -1.39486
H          0.07386        10.47596        -1.75004
H         -2.29632        10.43273        -1.90781
H         -4.73885        10.68351        -1.71027
H         -6.94942         9.80935        -1.00519
H         -8.09015         7.41567        -1.26758
H         -9.02767         5.22334        -1.67713
H         -9.79190         2.97643        -2.32839
H        -11.75099         0.87453        -1.83532
H        -11.67910        -1.37330        -1.06858
H        -10.73038        -3.30684        -0.36223
H         -9.61471        -5.47633        -0.18607
H         -8.37808        -7.63405        -0.39533
H         -7.13976        -9.66068        -0.90024
H         -5.00527       -10.67455        -1.51236
H         -2.79871       -10.84209        -1.52599
H         -0.11635       -10.79746        -1.87253
H          2.48932       -10.66807        -1.91052
H          4.86893       -10.85692        -1.48954
H          7.01334        -9.65667        -1.19496
H          8.28063        -7.69100        -0.40501
H          9.48700        -5.55770         0.43794
H         10.35523        -3.36437         1.36843
