         210
 CSIRO Nanostructure Databank - Neutral Graphene Oxide Data Set
C         30.53368        31.67013         0.61779
C         30.60657        32.84917         0.18985
C         30.46449        35.99960        -0.38202
C         30.47666        37.24186        -0.41286
C         30.47489        40.42611        -0.31695
C         30.42788        41.67063        -0.19712
C         33.04152        29.03216         1.31456
C         31.89020        29.54107         1.30329
C         32.92378        31.67341         0.86685
C         31.73953        30.92748         0.91465
C         32.90456        33.19808         0.77743
C         31.63500        33.80348         0.11452
C         32.82717        35.95051        -0.15723
C         31.61072        35.15757        -0.17592
C         32.83969        37.35606        -0.18287
C         31.58828        38.13312        -0.29316
C         32.82367        40.31435        -0.15911
C         31.55708        39.51038        -0.25876
C         32.76339        41.73462         0.30253
C         31.56572        42.44715         0.22578
C         32.71672        44.35649         1.10029
C         31.71077        43.83422         0.60201
C         35.72539        27.45672         0.93989
C         35.51515        28.86314         0.84791
C         34.33707        29.53723         1.13242
C         35.44339        31.68992         0.46349
C         34.28666        31.07238         1.22395
C         35.33932        33.08842         0.11654
C         34.15499        33.78103         0.16332
C         35.36355        35.95346        -0.07375
C         34.10497        35.18485        -0.41229
C         35.31154        37.38572         0.07956
C         34.09011        38.06748        -0.03925
C         35.33864        40.25498         0.40266
C         34.11224        39.54765        -0.04871
C         35.31275        41.62866         0.67039
C         33.97645        42.23945         1.09191
C         35.33088        44.52796         1.04737
C         34.05588        43.78781         1.26884
C         35.43129        45.96184         0.73509
C         37.80292        27.34074        -0.19703
C         36.74594        26.82252         0.60872
C         37.82759        28.81006        -0.19532
C         36.69750        29.52969         0.31228
C         37.84138        31.67846        -0.13493
C         36.61249        30.96764         0.17504
C         37.84416        33.07796        -0.15431
C         36.55858        33.79929        -0.44996
C         37.80249        35.95252         0.20944
C         36.56049        35.26778        -0.05848
C         37.78958        37.37634         0.39125
C         36.55082        38.10849         0.28908
C         37.79818        40.23289         0.86870
C         36.54954        39.50932         0.43380
C         37.80031        41.69230         0.52031
C         36.55938        42.38310         0.64733
C         37.77465        44.49246         0.28345
C         36.57573        43.79675         0.62834
C         37.77969        45.92129         0.07902
C         36.47101        46.45710         0.27925
C         40.18555        24.60049        -1.06814
C         39.11843        25.24461        -0.89298
C         40.36717        27.71173        -1.65247
C         38.60360        26.53908        -1.01737
C         40.28766        28.94648        -0.95480
C         39.04432        29.54869        -0.52714
C         40.30683        31.69210        -0.27937
C         39.07046        30.95600        -0.29258
C         40.29629        33.09929        -0.04523
C         39.05603        33.80553        -0.03673
C         40.26207        35.87342         0.59610
C         39.01070        35.21461         0.21625
C         40.27653        37.39229         0.70808
C         39.01358        38.10879         0.50086
C         40.28282        40.22226         0.34583
C         39.05557        39.50985         0.49239
C         40.27318        41.64523         0.21176
C         39.01957        42.36830         0.29632
C         40.23584        44.49667        -0.13547
C         39.01424        43.79024         0.12243
C         40.22626        45.91460        -0.31317
C         38.95328        46.60199        -0.23122
C         40.13674        48.66501        -0.68274
C         39.10824        47.99502        -0.45170
C         42.76208        24.59433        -1.01322
C         41.47271        24.77234        -1.56246
C         42.79825        27.57602        -1.39870
C         41.56184        27.01972        -1.86425
C         42.76498        28.94235        -1.01086
C         41.53923        29.63486        -0.78899
C         42.79747        31.72034        -0.24498
C         41.55176        31.01555        -0.42655
C         42.78520        33.11482         0.05418
C         41.54156        33.80737         0.11749
C         42.75275        35.91191         0.54493
C         41.53995        35.19290         0.37539
C         42.75239        37.37107         0.54765
C         41.54968        38.09586         0.49964
C         42.74935        40.19455         0.03146
C         41.52543        39.50310         0.27787
C         42.73416        41.63175        -0.14931
C         41.49144        42.34857        -0.03841
C         42.70454        44.48078        -0.39895
C         41.48053        43.77318        -0.19814
C         42.68607        45.90858        -0.57433
C         41.44684        46.64117        -0.55313
C         42.71032        48.65220        -0.94868
C         41.43492        48.08855        -0.74653
C         43.72484        25.39489        -1.14921
C         45.19608        27.39120        -0.73954
C         44.00857        26.78613        -1.14747
C         45.34028        28.87169        -0.76672
C         44.03087        29.67983        -0.89421
C         45.27436        31.71569        -0.11534
C         44.03650        31.05645        -0.39508
C         45.23987        33.07351         0.27846
C         44.01173        33.80869         0.31724
C         45.16118        36.00079         1.10444
C         43.97493        35.21125         0.58127
C         45.23765        37.39460         0.52451
C         43.99161        38.07821         0.38102
C         45.22564        40.10157        -0.32024
C         43.96022        39.45866         0.05507
C         45.21027        41.61093        -0.55750
C         43.93961        42.34260        -0.36037
C         45.20480        44.45173        -0.59876
C         43.94827        43.76100        -0.43957
C         45.16881        45.86974        -0.75999
C         43.94071        46.57900        -0.77097
C         43.76218        47.96236        -0.94392
C         47.46074        27.41633         0.06781
C         46.40618        26.82707        -0.25838
C         47.72346        28.81600         0.12252
C         46.52621        29.56491        -0.19588
C         47.81738        31.65173         0.08938
C         46.51953        30.95693        -0.07007
C         47.82389        33.17052         0.39572
C         46.47767        33.75946         0.70371
C         47.78649        35.90154         0.71197
C         46.46004        35.21850         1.03282
C         47.72917        37.41429         0.67574
C         46.47256        38.07577         0.42312
C         47.70994        40.16533        -0.10174
C         46.50164        39.45408         0.02545
C         47.71311        41.59133        -0.37851
C         46.49757        42.31874        -0.46627
C         47.72319        44.41830        -0.70090
C         46.46530        43.73871        -0.56995
C         47.55415        45.81521        -0.86828
C         46.46472        46.42869        -0.89041
C         50.18816        28.86272         0.70753
C         48.92912        29.46531         0.44362
C         50.24251        31.59611         0.74255
C         49.03624        30.90502         0.44168
C         50.22788        33.04827         0.97366
C         49.02054        33.77258         0.98662
C         50.22787        36.00911         1.44120
C         48.91767        35.20230         1.53776
C         50.19640        37.40905         0.87638
C         48.92543        38.09799         0.51474
C         50.19609        40.14681        -0.11655
C         48.96106        39.48443         0.11859
C         50.22130        41.55163        -0.45220
C         48.97216        42.27437        -0.49312
C         50.23718        44.21645        -0.88539
C         48.94043        43.69869        -0.69882
C         51.28854        29.42902         0.88228
C         52.63598        31.59395         1.21631
C         51.48913        30.83410         0.95135
C         52.50135        32.85341         1.35928
C         51.45505        33.74268         1.32345
C         52.60469        35.94609         0.88460
C         51.55403        35.19096         1.69373
C         52.52508        37.13489         0.54249
C         51.45027        38.05240         0.38394
C         52.55188        40.16526        -0.41081
C         51.43610        39.36524        -0.03313
C         52.61987        41.38458        -0.66086
C         51.48009        42.23953        -0.70381
C         51.34696        43.62722        -0.91322
O         46.47852        34.22485         2.10277
O         39.15938        27.17875        -2.15881
O         50.21708        37.14172         2.36855
O         34.86474        44.16876         2.39227
O         44.92642        29.45726        -2.03523
O         48.00344        32.67280        -0.95347
O         41.49853        25.78895        -2.59263
O         45.18369        40.66343        -1.68297
O         40.22189        36.55052         1.91050
O         33.66543        40.12084        -1.35819
O         48.60463        35.14722         2.92981
H         48.87607        36.00443         3.32875
O         36.47766        33.74784        -1.90757
H         35.60004        34.13317        -2.16773
O         32.86042        33.69488         2.14663
H         32.04708        33.34547         2.56917
O         51.85733        35.27218         3.06443
H         51.71247        36.20425         3.34522
O         48.11669        35.57020        -0.67263
H         47.51925        36.06307        -1.27376
O         34.09423        35.00937        -1.88663
H         34.03700        35.90187        -2.29177
O         37.77719        40.20424         2.35477
H         37.86572        39.26598         2.63028
O         34.53417        31.39177         2.62722
H         33.77331        31.06225         3.15088
O         44.89081        36.21816         2.52443
H         45.17046        35.39590         2.99007
O         33.74611        41.72004         2.43387
H         34.31810        42.23471         3.04753
