         317
 CSIRO Nanostructure Databank - Neutral Graphene Oxide Data Set
C         30.31319        31.76750        -0.60938
C         30.43136        32.93296        -0.20057
C         30.41798        35.87781         0.99860
C         30.30604        37.09159         1.28636
C         30.24571        40.39123         1.20562
C         30.31902        41.62816         1.34625
C         32.78166        29.10266        -1.52355
C         31.66008        29.59074        -1.29688
C         32.75716        31.56707        -0.39926
C         31.47978        31.09517        -1.28460
C         32.78492        33.08199        -0.17189
C         31.53990        33.77955         0.15301
C         32.79708        35.78341         1.11999
C         31.52053        35.01032         0.76928
C         32.69378        37.30618         0.68988
C         31.37344        38.02920         0.84926
C         32.67123        40.31579         0.99814
C         31.39192        39.48139         1.21228
C         32.63226        41.79656         0.81719
C         31.42601        42.48821         1.06563
C         32.58648        44.55296         0.67532
C         31.56728        43.91109         0.96319
C         35.39167        27.42253        -1.34712
C         35.37353        28.93402        -1.77347
C         34.11057        29.64732        -1.34036
C         35.35098        31.76100        -0.82107
C         34.06945        30.95361        -0.91900
C         35.23412        32.89565         0.22575
C         33.98271        33.75185         0.03647
C         35.30714        35.66320         0.72682
C         34.02131        35.08993         0.55619
C         35.09622        37.62754        -0.10806
C         33.97942        38.12701         0.82632
C         35.17309        40.37331         0.75625
C         33.85393        39.62061         0.34393
C         35.07770        41.82384         0.26231
C         33.87097        42.47985         0.40716
C         35.08485        44.72796        -0.13504
C         33.83270        43.98019         0.14823
C         35.37438        46.14599         0.07569
C         37.85980        27.28057        -0.88954
C         36.53742        26.93670        -1.07572
C         37.95695        28.80411        -1.20712
C         36.59782        29.48528        -1.01389
C         37.78938        31.48277         0.21149
C         36.53146        30.85904        -0.43676
C         37.84112        33.02199         0.14895
C         36.53496        33.71543         0.23480
C         37.67537        35.98202        -0.19336
C         36.37629        35.15402        -0.22901
C         37.61194        37.41902         0.21793
C         36.46484        38.16094         0.23751
C         37.63835        40.31084         0.28322
C         36.46115        39.63078         0.38532
C         37.64268        41.76247        -0.17732
C         36.41619        42.56839         0.35311
C         37.70490        44.74377         0.12594
C         36.44542        43.97905        -0.32870
C         37.81261        46.24844        -0.25658
C         36.44243        46.75727         0.11447
C         40.21044        24.50011        -0.05215
C         39.13418        25.08158        -0.34177
C         40.29426        27.21073        -0.26076
C         39.11830        26.46671        -0.96203
C         40.40258        28.68706        -0.61940
C         39.07016        29.34322        -0.32445
C         40.29448        31.57541         0.38355
C         39.11486        30.87307        -0.33522
C         40.34597        33.07365         0.00767
C         39.05477        33.73946        -0.46400
C         40.25385        36.00838         0.15128
C         39.01091        35.27880        -0.26176
C         40.19467        37.34970         0.39822
C         38.89147        38.10993         0.65389
C         40.14614        40.32115         0.55635
C         38.92313        39.53892         0.03345
C         40.14672        41.80304         0.17844
C         38.97885        42.48811         0.07440
C         40.30009        44.71656         0.02801
C         38.99877        43.98453         0.18955
C         40.32262        46.19587         0.01172
C         38.99085        46.90715         0.45033
C         40.26997        48.94588        -0.05161
C         39.19533        48.34643         0.07422
C         42.77298        24.47801         0.54851
C         41.48242        24.95805         0.33616
C         42.80540        27.22265         0.55345
C         41.47463        26.48439         0.31187
C         42.81840        28.66992         0.05482
C         41.63557        29.35842        -0.02866
C         42.89614        31.60394         0.12052
C         41.62504        30.82508         0.22167
C         42.81152        33.09857         0.02561
C         41.49388        33.79316         0.17855
C         42.70474        35.92956         0.52730
C         41.53109        35.26622         0.23365
C         42.77917        37.43220         0.39525
C         41.44878        38.11749         0.79538
C         42.70527        40.32210         0.37779
C         41.43597        39.54110         0.15660
C         42.67005        41.75172        -0.10267
C         41.45053        42.53836         0.47923
C         42.79916        44.73264         0.03520
C         41.46141        43.99147         0.01983
C         42.70375        46.07869        -0.70521
C         41.48783        46.88424        -0.25113
C         42.82608        48.94649        -0.33799
C         41.57367        48.38305        -0.23643
C         43.87860        25.06045         0.77574
C         45.33449        27.20300         0.51443
C         44.07663        26.43574         0.09055
C         45.43907        28.56218        -0.27299
C         44.12121        29.37265        -0.22602
C         45.45865        31.63332        -0.16562
C         44.15278        30.88114        -0.31554
C         45.41505        33.10200         0.16111
C         44.09311        33.85027         0.16577
C         45.25201        35.93762         1.18926
C         43.99101        35.22259         0.76829
C         45.30586        37.45986         1.37842
C         43.94088        38.16192         1.10089
C         45.26098        40.35222         0.60794
C         43.93380        39.67291         0.83958
C         45.22836        41.64231        -0.21302
C         44.00338        42.48879         0.20454
C         45.31673        44.63721        -0.25081
C         44.00662        43.87526        -0.49397
C         45.33664        46.05240        -0.89601
C         44.09807        46.82451        -0.54257
C         43.84029        48.12987        -0.45367
C         47.66984        27.24334         0.20211
C         46.67274        26.50255         0.13261
C         47.90967        28.65874         0.18939
C         46.71695        29.34895         0.09798
C         47.91703        31.53494         0.71528
C         46.73337        30.83871         0.09646
C         47.81830        32.97939         1.11340
C         46.46154        33.68879         1.09537
C         47.73440        35.87144         0.78883
C         46.55881        35.21821         0.99046
C         47.85712        37.39075         0.94670
C         46.46876        38.02782         0.52971
C         47.68191        40.14336        -0.32737
C         46.52878        39.55986         0.49825
C         47.72797        41.66911        -0.36819
C         46.54309        42.38308        -0.11575
C         48.00927        44.49470        -0.08727
C         46.58223        43.85886        -0.00918
C         47.71459        45.93854        -0.33994
C         46.68320        46.58473        -0.50720
C         50.43740        28.74443         0.90072
C         49.25081        29.33034         0.22691
C         50.39095        31.52636         1.38052
C         49.08116        30.73894         1.28305
C         50.46907        33.05195         1.08708
C         49.09363        33.74052         1.04219
C         50.25104        35.90037         0.38379
C         48.95570        35.08248         0.32797
C         50.13902        37.24046        -0.37323
C         48.98761        38.04203         0.16960
C         50.23282        40.13019        -0.60110
C         49.03771        39.54662         0.20694
C         50.24445        41.68055        -0.46857
C         48.90621        42.29481        -0.82104
C         50.13761        44.33367        -1.51014
C         48.75246        43.78629        -1.22619
C         51.52850        29.31880         1.07659
C         52.73757        31.60695         0.74851
C         51.74491        30.73191         1.37069
C         52.66397        32.71839         0.21601
C         51.38370        33.46539        -0.13958
C         52.38241        35.84796        -0.57079
C         51.45997        34.97203        -0.19705
C         52.58911        37.15706        -0.55394
C         51.51376        37.97904        -0.37497
C         52.65684        40.16831        -1.04083
C         51.57532        39.46089        -0.16555
C         52.47177        41.34770        -1.45343
C         51.45577        42.28159        -1.36101
C         51.14979        43.60044        -1.66302
O         38.42048        35.91592        -1.45926
O         42.46953        31.12087         1.42719
O         36.17114        29.68701         0.35265
O         35.22953        40.51592         2.16088
O         43.66875        39.06188         2.17414
O         32.29390        39.80347         2.30310
O         46.21218        40.29431         1.70460
O         38.26527        44.42116         1.40100
O         34.17346        44.37638        -1.21270
O         31.90874        37.66542        -0.46529
O         37.37448        33.60776         1.41109
O         40.39212        27.00813         1.16834
O         48.47396        33.46771         2.33285
O         43.98882        30.10984        -1.52524
O         47.81652        31.40531        -0.73265
O         44.38511        35.30830         2.18537
O         45.82729        44.50194         1.10774
O         43.46458        33.70627        -1.13859
O         51.16179        31.18565         2.59864
O         45.74759        32.66457        -1.16705
O         40.71509        28.76450        -2.05452
H         40.70261        29.72428        -2.28734
O         45.64243        28.19545        -1.65394
H         45.32418        28.94876        -2.20576
O         41.57723        42.57013         1.92816
H         40.87834        43.16592         2.27644
O         42.40203        41.71762        -1.52603
H         43.19705        41.32846        -1.96213
O         39.00537        33.53796        -1.88952
H         38.52859        34.31213        -2.27722
O         43.06052        45.06408         1.40798
H         43.15532        44.21245         1.90541
O         35.52352        29.02251        -3.16972
H         34.69103        28.73077        -3.59670
O         38.99902        39.39526        -1.40728
H         38.36234        38.69514        -1.67122
O         41.44329        38.13912         2.22558
H         40.52802        38.37243         2.52663
O         45.90602        33.35921         2.39361
H         46.56426        33.62846         3.07293
O         48.14381        37.65874         2.34436
H         47.29496        37.62375         2.85695
O         40.04237        40.34997         1.99318
H         40.75108        40.95460         2.32955
O         43.11797        37.60728        -1.00324
H         42.38265        37.26441        -1.55500
O         35.73980        36.12490         1.91348
H         34.96143        36.30142         2.50577
O         38.77278        38.19890         2.09998
H         38.10586        38.88829         2.31308
O         38.20270        28.90614        -2.63637
H         39.09727        28.50818        -2.80633
O         46.18036        37.56852        -0.79978
H         46.76763        38.05083        -1.43272
O         43.93264        43.61999        -1.90512
H         43.86682        44.48755        -2.37756
O         51.12550        33.66475         2.21759
H         51.37339        32.94707         2.85230
O         35.64034        32.36005        -2.09858
H         35.49515        31.69724        -2.80580
O         49.66014        29.68949        -1.06027
H         48.89275        30.02456        -1.57570
O         35.05351        32.27444         1.51483
H         35.92000        31.85324         1.77638
O         40.05112        31.60807         1.80867
H         40.93174        31.66050         2.25330
O         36.55941        42.75366         1.76574
H         36.14770        41.95665         2.21778
O         50.59965        42.07100         0.84229
H         50.06500        42.85841         1.10676
O         37.59350        31.12912         1.59228
H         38.32955        31.50932         2.12705
O         32.55869        30.98244         0.90075
H         33.35147        31.21274         1.44359
O         45.08059        41.21866        -1.61781
H         44.99690        42.06116        -2.13732
O         31.60208        31.58393        -2.58704
H         30.76010        31.45789        -3.06952
O         47.45312        39.72850        -1.71115
H         46.62335        40.20054        -1.99547
O         36.60998        43.90535        -1.75146
H         35.74415        43.64140        -2.14202
O         45.58540        37.67337         2.77061
H         44.86649        37.24712         3.28722
O         42.53030        45.84095        -2.11211
H         42.16443        46.65060        -2.52666
O         48.70643        34.69203        -1.03906
H         48.86328        35.47422        -1.62331
O         39.45584        26.35143        -2.34653
H         38.69986        25.95471        -2.82833
O         38.83372        46.81019         1.84661
H         39.55377        47.30455         2.28793
O         34.35002        38.11592         2.19501
H         34.63665        39.03696         2.48965
O         45.36232        27.45595         1.88333
H         45.02030        26.67511         2.36889
O         50.84470        32.93917        -1.32537
H         51.23269        33.39015        -2.10224
O         39.33291        31.18128        -1.72954
H         38.65002        30.72953        -2.28194
O         35.88875        35.06463        -1.56323
H         35.53450        35.94495        -1.84587
O         37.50985        41.64805        -1.61452
H         38.17087        40.97634        -1.91494
O         44.02027        26.25019        -1.29411
H         44.93375        26.16802        -1.64799
O         32.95014        35.85417         2.56309
H         32.77020        34.96643         2.93820
O         50.57656        36.23021         1.71210
H         50.69967        35.39788         2.23555
O         48.69803        44.25392         1.12484
H         48.14403        44.58617         1.86359
O         48.71332        30.24166         2.55127
H         49.53278        30.13546         3.08645
O         38.01687        46.34994        -1.65001
H         37.36377        45.76286        -2.09936
O         49.16141        40.00770         1.56012
H         48.88076        39.27518         2.16703
O         51.87158        39.75153         1.16931
H         52.48620        39.07666         1.52405
O         42.89194        27.34493         1.98950
H         41.98942        27.56763         2.31589
O         50.07994        39.78579        -1.99023
H         49.14202        39.96440        -2.25361
O         33.64684        39.73514        -1.05384
H         33.92129        38.90486        -1.51996
O         44.07978        42.61763         1.62827
H         44.92296        43.09061         1.84330
O         41.39872        39.32322        -1.27577
H         41.37058        40.21229        -1.70884
O         47.94410        43.89777        -2.38507
H         48.42829        43.52559        -3.15023
O         34.81702        37.41942        -1.31696
O         49.87343        36.97350        -1.79097
H         49.95451        37.84835        -2.24945
O         45.34214        45.85449        -2.31958
H         45.43303        46.72861        -2.75329
