         429
 CSIRO Nanostructure Databank - Neutral Graphene Oxide Data Set
C          1.44680         3.82391         2.96884
C          0.21063         4.43212         2.82632
C          1.26876         6.50278         2.09925
C          0.12080         5.77001         2.40459
C          1.17023         7.95730         1.77077
C         -0.09773         8.56212         1.25636
C          1.07886        10.58590         0.39122
C         -0.08635         9.87775         0.59198
C          1.06466        11.98497        -0.09416
C         -0.14096        12.68508        -0.36555
C          1.05265        14.81000        -0.59398
C         -0.14496        14.04780        -0.60880
C          1.07677        16.25371        -0.71902
C         -0.11791        17.00159        -0.88785
C          1.11224        19.11428        -0.88191
C         -0.10065        18.37835        -0.96424
C          1.12408        20.56251        -0.93928
C         -0.06738        21.31181        -1.09398
C          1.15231        23.42711        -1.00848
C         -0.05292        22.69402        -1.13167
C          1.16985        24.87492        -1.03485
C         -0.01674        25.62710        -1.21040
C          1.20142        27.73629        -1.04835
C         -0.00088        27.00925        -1.21914
C          1.21761        29.18401        -1.03353
C          0.02976        29.93971        -1.17855
C          1.24773        32.04270        -0.95868
C          0.04411        31.32173        -1.13670
C          1.26091        33.49084        -0.89227
C          0.06570        34.25282        -0.93160
C          1.30206        36.33766        -0.72259
C          0.08386        35.63587        -0.83473
C          1.33228        37.76873        -0.59702
C          3.91839         3.93537         2.84291
C          2.63167         4.54066         2.67274
C          3.75275         6.58683         1.85436
C          2.54383         5.88918         2.22790
C          3.69330         7.91056         1.35880
C          2.45905         8.75602         1.58803
C          3.54406        10.53758         0.21905
C          2.34538         9.93152         0.63394
C          3.55284        12.04094         0.22358
C          2.26374        12.70438        -0.17012
C          3.51875        14.83588        -0.38948
C          2.27455        14.10961        -0.40268
C          3.54248        16.23770        -0.50105
C          2.31122        16.96334        -0.64653
C          3.57558        19.11407        -0.66630
C          2.32870        18.39577        -0.73425
C          3.58121        20.54268        -0.69793
C          2.35598        21.26994        -0.82793
C          3.60441        23.41788        -0.71699
C          2.37036        22.70511        -0.85260
C          3.62093        24.84738        -0.71319
C          2.39935        25.57733        -0.87631
C          3.64871        27.71629        -0.69942
C          2.41539        27.01033        -0.87825
C          3.66826        29.14561        -0.69776
C          2.44788        29.88036        -0.86131
C          3.70888        32.00723        -0.67893
C          2.46565        31.31145        -0.83556
C          3.72929        33.43736        -0.66950
C          2.50310        34.17276        -0.76868
C          3.76352        36.29893        -0.64711
C          2.52802        35.60443        -0.71382
C          3.77883        37.74490        -0.56364
C          2.51449        38.44266        -0.49776
C          6.40409         3.90459         2.80183
C          5.08065         4.59260         2.50684
C          6.16598         6.54182         1.39162
C          5.00898         5.91280         1.93726
C          6.07016         7.77243         0.74903
C          4.83824         8.49800         0.77131
C          5.97067        10.42191        -0.38013
C          4.76385         9.82468         0.21886
C          5.98358        11.94664        -0.66213
C          4.76339        12.71888        -0.34329
C          6.06100        14.80081        -0.21420
C          4.75534        14.08544        -0.39290
C          6.02400        16.27354        -0.49300
C          4.80710        16.96213        -0.51677
C          6.04763        19.09866        -0.50443
C          4.80228        18.39693        -0.57871
C          6.04313        20.54605        -0.49681
C          4.81499        21.25975        -0.60094
C          6.06028        23.39809        -0.46302
C          4.82819        22.69122        -0.59789
C          6.07079        24.83559        -0.36038
C          4.84643        25.55585        -0.52669
C          6.08712        27.68381        -0.29473
C          4.85964        26.98525        -0.50977
C          6.10759        29.11251        -0.30406
C          4.89659        29.84463        -0.51680
C          6.16114        31.97360        -0.35600
C          4.92145        31.27590        -0.52140
C          6.18385        33.40374        -0.40211
C          4.96460        34.13130        -0.54879
C          6.21950        36.26193        -0.52007
C          4.99184        35.56973        -0.58795
C          6.27171        37.73874        -0.81827
C          4.97246        38.43589        -0.56415
C          8.94545         3.96692         2.35541
C          7.58681         4.48114         2.04363
C          8.68825         6.58952         1.08885
C          7.45749         5.80607         1.37487
C          8.57048         7.74273         0.38386
C          7.23046         8.26031        -0.09305
C          8.53874        10.54171        -0.30825
C          7.25217         9.76003        -0.27875
C          8.48383        11.95972        -0.80540
C          7.27626        12.64090        -0.75210
C          8.55764        14.76407        -0.53437
C          7.22285        14.13979        -0.95765
C          8.51899        16.26634        -0.68875
C          7.28138        16.95721        -0.56885
C          8.54527        19.06835        -0.33156
C          7.26031        18.37957        -0.48324
C          8.53858        20.56142        -0.31160
C          7.25351        21.26825        -0.44969
C          8.54444        23.36380        -0.20228
C          7.27880        22.67815        -0.42709
C          8.52163        24.78924         0.07086
C          7.27503        25.52357        -0.08419
C          8.48786        27.66214         0.27014
C          7.28834        26.95357        -0.03946
C          8.49383        29.05948         0.27357
C          7.32693        29.80643        -0.06058
C          8.58911        31.95544         0.06018
C          7.36423        31.24636        -0.11000
C          8.61198        33.36399        -0.08503
C          7.42372        34.10375        -0.28352
C          8.62045        36.28931        -0.06741
C          7.43950        35.55800        -0.32166
C          8.63461        37.73497         0.03187
C          7.46302        38.43272        -0.22635
C         11.39143         4.11748         2.29900
C         10.08162         4.68022         2.08784
C         11.22851         6.71504         1.07780
C          9.98248         6.16318         1.77467
C         11.08805         7.86119         0.13740
C          9.75505         8.38584        -0.23315
C         10.99984        10.46661        -1.22609
C          9.73411         9.76644        -0.82781
C         10.94687        11.88292        -1.41269
C          9.72980        12.59840        -1.13957
C         10.98701        14.86292        -1.32409
C          9.68454        14.06708        -1.27398
C         10.98947        16.25560        -0.91461
C          9.76812        16.96584        -0.77688
C         11.03155        19.11378        -0.77188
C          9.79768        18.38073        -0.64173
C         11.04796        20.55491        -0.72907
C          9.74298        21.29496        -0.84522
C         11.01857        23.27067         0.12691
C          9.74189        22.67201        -0.24821
C         10.99311        24.75431         0.40823
C          9.70120        25.45479         0.32499
C         11.01403        27.57422         0.64570
C          9.67688        26.87953         0.79243
C         10.98616        29.01279         0.93116
C          9.69895        29.79128         0.73053
C         10.98885        31.89332         0.69294
C          9.79899        31.24686         0.45805
C         11.13657        33.33196         0.39177
C          9.90277        34.07736        -0.04764
C         11.00854        36.27834         0.74458
C          9.90170        35.57951         0.01117
C         11.07102        37.75586         0.60066
C          9.87620        38.42178         0.30031
C         13.85922         4.12273         2.04628
C         12.56392         4.71687         1.84879
C         13.58865         6.39573         0.36697
C         12.49061         5.93338         1.06190
C         13.46700         7.48778        -0.63664
C         12.16519         8.23050        -0.81951
C         13.30129         9.91209        -2.14064
C         12.15055         9.59917        -1.40996
C         13.30711        12.15310        -2.29188
C         12.15033        12.68883        -1.70963
C         13.45318        14.77599        -1.29383
C         12.22942        14.09045        -1.38470
C         13.51694        16.21061        -1.03409
C         12.27902        16.93882        -0.55651
C         13.47306        19.13227        -1.24954
C         12.23577        18.41018        -0.88932
C         13.55976        20.66177        -1.15488
C         12.25566        21.27941        -0.67779
C         13.53085        23.34282        -0.09220
C         12.28708        22.62676        -0.27584
C         13.51472        24.74603         0.13824
C         12.22293        25.51346        -0.03919
C         13.49330        27.60823         0.63446
C         12.21435        26.92944         0.48234
C         13.46237        29.05030         0.89270
C         12.26151        29.72856         0.93852
C         13.46391        31.89800         1.52645
C         12.17683        31.17264         1.22248
C         13.51402        33.37221         1.43506
C         12.32443        34.08172         0.91750
C         13.43979        36.29142         1.74127
C         12.19512        35.53494         1.25071
C         13.51211        37.70815         1.17336
C         12.32221        38.38424         0.74760
C         16.31746         4.11000         1.72281
C         15.00823         4.69208         1.52535
C         16.04196         6.43416         0.12494
C         14.90401         5.85101         0.64303
C         15.96079         7.48282        -0.90927
C         14.67493         8.13282        -1.14849
C         15.81621         9.88846        -2.41435
C         14.58332         9.25328        -1.97317
C         15.78009        12.12682        -2.56260
C         14.57941        12.78903        -2.19933
C         15.92297        14.74407        -1.60112
C         14.66132        14.09551        -1.62920
C         16.03929        16.18699        -1.17533
C         14.70515        16.88068        -1.10408
C         16.04745        19.06160        -1.13571
C         14.74444        18.35596        -1.26846
C         16.07399        20.45222        -0.60933
C         14.73726        21.13105        -0.26246
C         15.98949        23.37784        -0.12025
C         14.78678        22.66212        -0.21459
C         15.97048        24.75948         0.27270
C         14.71768        25.45364         0.33958
C         15.99438        27.65581         0.51733
C         14.68464        26.89354         0.56017
C         15.91906        28.96077         1.28045
C         14.69049        29.76373         1.16473
C         15.97250        31.82626         1.58472
C         14.71843        31.11956         1.45101
C         15.96090        33.30826         1.43215
C         14.69347        34.06934         1.51714
C         15.93534        36.21063         1.66403
C         14.73901        35.51869         1.55538
C         15.90251        37.70313         1.93152
C         14.72086        38.35709         1.25312
C         18.78110         4.19445         1.49953
C         17.46512         4.74182         1.30045
C         18.58467         6.64172         0.01822
C         17.36868         6.15368         0.77491
C         18.51221         7.79089        -0.77783
C         17.21719         8.22459        -1.33269
C         18.26931        10.41059        -2.02067
C         17.07540         9.56558        -1.93187
C         18.24447        11.82985        -2.13293
C         17.04981        12.62258        -2.19963
C         18.34561        14.73862        -1.98393
C         17.08829        14.03128        -1.88430
C         18.30688        16.19173        -2.25085
C         17.00855        16.97498        -2.08108
C         18.45250        19.10955        -1.63830
C         17.18438        18.39962        -1.52256
C         18.50565        20.52745        -1.44099
C         17.35956        21.24349        -0.76797
C         18.50144        23.33405         0.04553
C         17.28546        22.79820        -0.70615
C         18.42565        24.70431         0.85487
C         17.18375        25.46988         0.67160
C         18.44380        27.54009         1.24618
C         17.21651        26.84240         0.88506
C         18.48661        28.96203         1.38494
C         17.20540        29.68246         1.57295
C         18.46569        31.86041         1.77779
C         17.17128        31.15143         1.60620
C         18.49288        33.35648         1.82700
C         17.23406        34.07449         1.49286
C         18.42399        36.22310         1.61742
C         17.21127        35.54276         1.64290
C         18.40268        37.68320         1.54822
C         17.21072        38.37366         1.62455
C         19.90952         4.84235         1.06725
C         21.01394         6.70403        -0.19028
C         19.84766         6.07264         0.31528
C         20.93854         7.88601        -0.90670
C         19.67932         8.46955        -1.22880
C         20.72586        10.48287        -2.28775
C         19.54718         9.76167        -1.84704
C         20.71921        11.83439        -2.33929
C         19.53481        12.55235        -1.74310
C         20.77704        14.78383        -1.89284
C         19.54017        14.04968        -1.97989
C         20.81712        16.14601        -1.93016
C         19.61735        16.92747        -2.25721
C         20.76692        19.09118        -2.46078
C         19.60755        18.40817        -2.08815
C         20.80338        20.47701        -2.37252
C         19.70497        21.15725        -1.84027
C         20.97282        23.59790         0.08790
C         19.82145        23.07596        -0.47058
C         20.89202        24.71006         0.95163
C         19.68762        25.39464         1.12038
C         20.86473        27.53332         1.61495
C         19.66796        26.82187         1.36660
C         20.89294        28.91887         1.63394
C         19.70295        29.66041         1.51116
C         20.94982        31.94149         1.69636
C         19.72026        31.16864         1.28078
C         20.95372        33.30821         1.75425
C         19.75671        34.09683         1.65560
C         20.87972        36.28415         1.39185
C         19.70373        35.51457         1.55572
C         20.84071        37.68527         1.29973
C         19.64561        38.37840         1.36846
O          9.51254         8.59250        -1.67468
O         11.46432         8.12069         1.53106
O         19.90068        22.54383        -1.76995
O         10.09923        14.62811        -2.52858
O         11.05356        35.79483         2.14827
O         16.68793        33.67061         0.17920
O         10.19858        34.88464        -1.24504
O          0.23139         8.63953         2.68844
O         16.65673         7.14499        -2.17501
O         18.96637        16.51916        -3.52662
O         12.24988        33.69212        -0.50879
O         12.51256         7.15556        -1.73402
O         10.12382        29.40663         2.08617
O          7.36865         4.54656         0.58324
O         11.11554        23.82482         1.50509
O         14.03408        18.68824        -2.55157
O         16.43319        28.98433         2.63804
O         18.51432        32.54171         3.06918
O         12.54657        31.48841         2.61755
O         13.22596        10.97691        -3.04945
O         18.33128        23.38546         1.47070
O          8.68665        19.86616         0.95008
O         15.69461        10.95541        -3.32113
O         17.02490        20.61770         0.50628
O          5.72962        11.00048        -1.74043
O         14.40929        20.69678         1.07587
H         15.21990        20.80058         1.62309
O          6.99976        14.40954        -2.35544
H          7.79112        14.12702        -2.86258
O          9.90759         6.78674         3.08926
H         10.31205         7.68234         2.99738
O          9.49417        21.42468        -2.28794
H         10.27178        21.86718        -2.69019
O          6.97650         7.72545        -1.43287
H          7.77887         7.92949        -1.97385
O          9.46984        26.78072         2.24360
H          9.56475        27.69834         2.60307
O         16.39469        17.08316        -3.37582
H         17.12320        17.15005        -4.03437
O          2.70237         9.44773         2.87228
H          1.80990         9.54902         3.28566
O          6.30046        14.67027         1.23305
H          5.45792        14.86725         1.69653
O         13.78566        21.19636        -2.47516
H         13.97442        20.42427        -3.06569
O          8.88469        10.69707         1.13636
H          8.40043        11.47670         1.48573
O         19.63479        31.30326        -0.18091
H         20.43115        30.88483        -0.57007
O         15.68790        37.87434         3.37591
H         14.83451        37.41749         3.58969
O          8.85556        14.46614         0.85539
H          8.07913        14.74576         1.39841
O          6.48028        37.82008        -2.30298
H          7.31242        37.33508        -2.49561
O          6.31065         2.50163         2.52320
H          6.28310         2.40054         1.54844
O          3.69467        12.32141         1.68885
H          3.27700        11.57226         2.17758
O         17.31259        23.30429        -2.06069
H         18.21186        23.14233        -2.43018
O         17.36401         7.01073         1.99062
H         18.14685         6.75401         2.52406
O         12.03713        25.63538        -1.49561
H         12.82415        26.09172        -1.86197
O         16.17542        28.05941        -0.88437
H         16.27273        27.24413        -1.42074
O         19.65147        12.41124        -0.27983
H         19.71214        11.45026        -0.08840
O         16.63163        16.23120         0.15468
H         16.00412        15.81786         0.78431
O         13.29953        36.44254         3.18580
H         12.32968        36.50560         3.36486
O         12.39829        16.86223         0.92868
H         11.61361        17.31498         1.30821
H          1.51937         2.78265         3.31364
H         -0.70814         3.87678         3.06042
H         -0.86683         6.24639         2.33988
H         -0.96703         7.90402         1.04226
H         -1.06164        10.31196         0.33168
H         -1.10115        12.15101        -0.35567
H         -1.10956        14.54324        -0.78454
H         -1.08358        16.48300        -0.95498
H         -1.05608        18.90480        -1.08777
H         -1.03400        20.80003        -1.18867
H         -1.00887        23.21984        -1.25408
H         -0.97965        25.11707        -1.34383
H         -0.95211        27.53901        -1.35904
H         -0.93396        29.43362        -1.32036
H         -0.90819        31.85633        -1.24883
H         -0.90551        33.74841        -1.02042
H         -0.86148        36.19734        -0.84565
H          0.37735        38.31417        -0.57873
H          3.97639         2.91359         3.24613
H          2.52639        39.53843        -0.40567
H          6.60835         4.00134         3.90309
H          4.96929        39.53511        -0.50864
H          9.02223         2.92432         2.70285
H          7.46760        39.53284        -0.20814
H         11.45323         3.13077         2.78411
H          9.87988        39.52001         0.23239
H         13.93028         3.20659         2.65185
H         12.39476        39.46378         0.54291
H         16.38420         3.12926         2.21934
H         14.80038        39.41042         0.94103
H         18.87034         3.22498         2.01254
H         17.22294        39.47342         1.56954
H         20.89794         4.39552         1.24967
H         21.99645         6.25926         0.02531
H         21.86697         8.37328        -1.23493
H         21.61492         9.91461        -2.59855
H         21.59667        12.39031        -2.69799
H         21.70085        14.23018        -1.67176
H         21.75051        16.67508        -1.68955
H         21.63512        18.53802        -2.84212
H         21.69277        21.04592        -2.66982
H         21.95166        23.29733        -0.30843
H         21.83810        25.17079         1.26387
H         21.80947        26.99196         1.75150
H         21.85612        29.42988         1.76825
H         21.90766        31.41069         1.80044
H         21.91489        33.82075         1.91375
H         21.85296        35.77832         1.32765
H         21.78298        38.23657         1.17107
H         19.63484        39.47561         1.29942
