         614
 CSIRO Nanostructure Databank - Neutral Graphene Oxide Data Set
C         22.89941        69.76734         0.13461
C         22.87096        71.16961         0.21390
C         21.64955        71.90471         0.13587
C         22.85826        74.00454         0.33499
C         21.65385        73.28712         0.20301
C         25.42954        65.53715        -0.13748
C         25.38077        66.94909         0.00036
C         24.16179        67.64802         0.03005
C         25.35817        69.78324         0.32653
C         24.12189        69.05667         0.16174
C         25.31456        71.19248         0.50568
C         24.10247        71.89073         0.40429
C         25.32340        74.05846         0.47412
C         24.08798        73.33729         0.44026
C         27.89343        61.33307        -0.45862
C         27.86384        62.73223        -0.54594
C         26.67696        63.43660        -0.32663
C         27.89519        65.59569        -0.23506
C         26.64794        64.85938        -0.26063
C         27.87766        66.97867        -0.01801
C         26.62307        67.67951         0.08988
C         27.86586        69.81727         0.24348
C         26.59159        69.06941         0.26630
C         27.82057        71.27691         0.54372
C         26.53755        71.93856         0.98317
C         27.78201        74.11189         0.55951
C         26.55078        73.41432         0.62305
C         30.35334        57.02946        -0.34155
C         30.32573        58.42642        -0.52027
C         29.11729        59.19671        -0.49684
C         30.33138        61.34152        -0.81649
C         29.10097        60.59629        -0.59793
C         30.37109        62.73262        -0.86827
C         29.08138        63.50291        -1.02657
C         30.35547        65.55809        -0.33852
C         29.14858        64.90714        -0.46830
C         30.41685        66.91468         0.32511
C         29.12792        67.70183         0.15740
C         30.41456        69.71884         0.81190
C         29.13333        69.05666         0.33339
C         30.35796        71.25475         0.82411
C         29.07293        72.01121         0.87796
C         30.26187        74.17925         0.68321
C         29.04448        73.48426         0.65479
C         32.93069        52.77501        -0.15238
C         32.83178        54.18108        -0.35062
C         31.61985        54.89021        -0.22253
C         32.81165        57.02211        -0.49735
C         31.57434        56.30269        -0.37387
C         32.78174        58.44256        -0.57683
C         31.56784        59.12251        -0.67384
C         32.87328        61.33450        -1.02027
C         31.55504        60.56171        -0.99558
C         32.83664        62.78511        -0.84657
C         31.61179        63.46315        -0.86202
C         32.79612        65.63769        -0.73238
C         31.61075        64.91062        -0.66152
C         32.83516        67.07367        -0.48985
C         31.64772        67.72618        -0.05750
C         32.82385        69.86087        -0.04332
C         31.64311        69.11234         0.15427
C         32.78808        71.34820        -0.02144
C         31.52018        72.05071         0.33438
C         32.74081        74.15885         0.71728
C         31.52057        73.50732         0.64407
C         35.57175        48.63412         0.40684
C         34.99421        49.66744        -0.28578
C         34.05021        50.66104         0.11425
C         35.29344        52.67645        -0.91634
C         34.09906        52.00295        -0.37186
C         35.22010        54.14204        -1.04985
C         34.03134        54.90079        -0.66461
C         35.31847        57.00520        -0.58438
C         34.04934        56.30577        -0.62444
C         35.34271        58.45459        -0.28198
C         34.03275        59.20749        -0.37415
C         35.30311        61.34057        -0.57285
C         34.10588        60.64035        -0.64965
C         35.29954        62.77874        -0.75906
C         34.09786        63.46984        -0.79781
C         35.34633        65.68408        -1.19395
C         34.05918        64.92952        -1.05254
C         35.32778        67.21473        -1.17224
C         34.03854        67.82150        -0.61989
C         35.30941        70.01645        -0.54395
C         34.02159        69.21465        -0.39984
C         35.25417        71.39690         0.09979
C         34.04656        72.08667         0.18580
C         35.20118        74.13461         0.84098
C         33.99733        73.46541         0.58652
C         37.83387        44.34614        -0.38414
C         37.81896        45.72048        -0.57749
C         36.81720        46.50202         0.00733
C         37.87089        48.56232        -0.96026
C         36.91504        47.98963         0.09600
C         37.83254        49.96526        -1.25968
C         36.64804        50.66219        -1.36532
C         37.81009        52.81442        -1.20028
C         36.53390        52.08629        -1.23393
C         37.83080        54.19663        -0.91762
C         36.58165        54.94552        -1.05316
C         37.76197        57.05027        -0.16460
C         36.51821        56.34113        -0.64072
C         37.84715        58.46528        -0.74981
C         36.57370        59.22689        -0.49409
C         37.80761        61.35675        -0.38602
C         36.55916        60.60349        -0.49389
C         37.77810        62.73059        -0.47202
C         36.61124        63.45393        -1.11676
C         37.81617        65.67472        -0.87110
C         36.62885        64.97453        -0.95194
C         37.80680        67.16461        -0.69995
C         36.59480        67.81613        -0.58698
C         37.74237        69.96056         0.18244
C         36.45848        69.17974         0.06534
C         37.71101        71.34674         0.45597
C         36.45938        72.05690         0.45266
C         37.65606        74.12300         1.07422
C         36.43848        73.44789         0.79805
C         40.19505        39.97608         0.05794
C         40.17381        41.45800        -0.25062
C         39.02904        42.16353        -0.24843
C         40.26732        44.25737        -0.96910
C         38.94109        43.50302        -0.93076
C         40.25401        45.61408        -1.20126
C         38.93618        46.33332        -1.40240
C         40.27298        48.52345        -1.59063
C         39.02299        47.83997        -1.26112
C         40.29100        49.91697        -1.62974
C         39.02871        50.69066        -1.80384
C         40.28758        52.79793        -1.17319
C         39.04869        52.12373        -1.33534
C         40.30562        54.18488        -0.80690
C         39.05453        54.89738        -0.64978
C         40.24861        57.00956        -0.06945
C         39.03392        56.27932        -0.39447
C         40.27426        58.49209        -0.10950
C         39.07651        59.20669        -0.26700
C         40.27788        61.29866         0.04443
C         39.05418        60.62016        -0.15586
C         40.27525        62.76331         0.15887
C         38.95469        63.51478        -0.09585
C         40.30047        65.35559        -0.87469
C         39.03568        64.89383        -0.61866
C         40.31440        67.51483        -0.78354
C         39.02473        67.95299        -0.43844
C         40.20235        69.98634         0.36713
C         38.97840        69.28698         0.08722
C         40.16914        71.36437         0.72257
C         38.92076        72.05036         0.73407
C         40.12253        74.12970         1.27845
C         38.88756        73.45112         1.03116
C         42.48948        36.91088         3.23752
C         42.55267        37.95988         2.30724
C         41.37982        38.47549         1.68365
C         42.67982        40.17830         0.51321
C         41.43752        39.53974         0.79717
C         42.74115        41.35143        -0.36932
C         41.43512        42.06903        -0.74283
C         42.75772        44.18085        -1.10362
C         41.49917        43.51181        -0.97669
C         42.77589        45.58520        -1.36727
C         41.49118        46.27765        -1.76075
C         42.75347        48.43405        -1.59855
C         41.52001        47.77967        -1.60896
C         42.81255        49.90870        -1.74217
C         41.53062        50.68073        -1.75466
C         42.75664        52.79512        -1.28898
C         41.53062        52.11052        -1.36686
C         42.74405        54.20604        -1.08899
C         41.54456        54.87062        -0.76402
C         42.77053        57.08873        -0.48029
C         41.59100        56.26895        -0.28882
C         42.77402        58.47032        -0.18144
C         41.51746        59.17966        -0.01944
C         42.77401        61.31787         0.07067
C         41.51719        60.59968         0.04153
C         42.79289        62.73956         0.06016
C         41.55286        63.47319        -0.02869
C         42.76612        65.65721        -0.37710
C         41.53766        64.80158        -0.41337
C         42.67104        67.10418         0.07973
C         41.50464        67.99757        -0.21823
C         42.66686        69.99359         0.66212
C         41.46112        69.31276         0.32440
C         42.63445        71.35522         0.98916
C         41.38496        72.05844         1.01307
C         42.59198        74.25816         1.53627
C         41.33434        73.46498         1.27080
C         44.85107        34.93745         5.43761
C         43.63140        35.40147         4.82471
C         45.01895        36.79869         3.32956
C         43.65686        36.38505         3.84979
C         45.01588        38.07033         2.51863
C         43.82624        38.56681         1.97412
C         45.14512        40.25882         0.72348
C         43.87113        39.70152         1.10215
C         45.17452        41.47252        -0.02550
C         43.99349        42.12649        -0.41637
C         45.24387        44.20232        -0.94159
C         43.99886        43.48121        -0.86546
C         45.22620        45.57892        -1.21255
C         43.99626        46.29639        -1.39177
C         45.23486        48.48346        -1.62539
C         43.99990        47.73649        -1.51296
C         45.28199        49.86385        -1.66022
C         44.04558        50.61096        -1.22769
C         45.22419        52.80156        -1.52372
C         44.03163        52.10609        -1.46204
C         45.28090        54.22892        -1.31667
C         43.99157        54.95995        -1.27484
C         45.25719        57.08495        -0.61032
C         43.99579        56.44890        -0.95858
C         45.26022        58.47307        -0.33974
C         43.99862        59.19268        -0.23133
C         45.23415        61.34216        -0.11135
C         44.00800        60.61410        -0.05792
C         45.23534        62.73886        -0.02977
C         44.01445        63.44176        -0.00146
C         45.18503        65.56133         0.66538
C         44.04333        64.92637        -0.10972
C         45.22735        67.07086         0.60642
C         43.92148        67.78884         0.56849
C         45.16646        69.92170         1.05702
C         43.97936        69.30175         0.36375
C         45.10666        71.34383         1.33992
C         43.87776        72.06690         1.23966
C         45.08249        74.16010         1.55016
C         43.87506        73.46810         1.42782
C         46.03283        35.58107         5.25147
C         47.39326        37.26524         3.89331
C         46.05656        36.86688         4.45609
C         47.48316        38.13863         2.83391
C         46.26859        38.62635         2.15999
C         47.68643        39.93861         0.55513
C         46.34211        39.65901         1.20965
C         47.73296        41.27130        -0.20225
C         46.46523        42.03862        -0.47613
C         47.72905        44.12427        -0.93086
C         46.51368        43.49104        -0.78357
C         47.78132        45.59225        -1.08930
C         46.49383        46.33668        -1.25574
C         47.79396        48.41290        -2.10810
C         46.48356        47.70857        -1.86651
C         47.83051        49.89798        -1.95987
C         46.51813        50.60815        -2.00444
C         47.76660        52.84984        -1.62807
C         46.50030        52.11976        -1.85960
C         47.75848        54.19263        -1.27389
C         46.48384        54.89048        -1.15570
C         47.73138        57.09124        -0.85693
C         46.50151        56.24621        -0.47337
C         47.74597        58.40644        -0.04596
C         46.48000        59.17636        -0.27621
C         47.76958        61.33601        -0.10393
C         46.50148        60.64763        -0.55984
C         47.76178        62.71898         0.07449
C         46.51792        63.51119        -0.24832
C         47.67493        65.55741         0.65467
C         46.51657        64.90864         0.35279
C         47.73556        67.07053         0.80853
C         46.37815        67.75465         0.89097
C         47.47725        69.80588         1.90330
C         46.32663        69.18538         1.20463
C         47.46975        71.29626         2.12758
C         46.28598        72.04320         1.66429
C         47.56966        74.13260         1.69537
C         46.30552        73.46356         1.65925
C         48.73710        38.74216         2.48651
C         50.05567        40.43041         1.34558
C         48.84682        39.72452         1.50699
C         50.19708        41.55137         0.49959
C         49.04884        41.99280        -0.32619
C         50.26389        44.25067        -0.59158
C         49.03727        43.43595        -0.80086
C         50.31007        45.58025        -1.00040
C         49.07367        46.20143        -1.54631
C         50.37953        48.38878        -1.90769
C         49.08932        47.62447        -2.00292
C         50.31411        49.89303        -1.89423
C         48.99626        50.59811        -1.85668
C         50.29923        52.81772        -1.40964
C         49.02731        52.09570        -1.80601
C         50.24108        54.22794        -0.96612
C         49.00777        54.92229        -0.99465
C         50.22204        57.01263        -0.47720
C         49.01571        56.31086        -0.71644
C         50.21869        58.46578        -0.31141
C         49.01540        59.18335        -0.25754
C         50.22893        61.29977         0.06632
C         48.99417        60.59690        -0.08634
C         50.17753        62.70042         0.30335
C         48.97571        63.42099         0.33702
C         50.08094        65.47139         1.18269
C         48.95927        64.85464         0.67017
C         50.04554        66.72799         2.05096
C         48.75625        67.54817         1.84716
C         50.02812        69.75511         2.54440
C         48.73447        69.00931         2.16201
C         50.01545        71.23320         2.13089
C         48.76777        72.04343         2.45163
C         49.99770        74.07757         1.62959
C         48.76483        73.44084         1.85946
C         51.37370        42.30188         0.48640
C         52.65350        44.32934        -0.06283
C         51.44880        43.61124        -0.08483
C         52.72232        45.67306        -0.50430
C         51.52569        46.32625        -0.95715
C         52.78804        48.39764        -1.23279
C         51.58264        47.70003        -1.34440
C         52.80884        49.86234        -1.44671
C         51.49937        50.56948        -1.27206
C         52.76326        52.76786        -0.75749
C         51.49678        52.02659        -0.99320
C         52.69135        54.13505        -0.51687
C         51.45025        54.88667        -0.63044
C         52.69277        57.01786        -0.20485
C         51.45218        56.29721        -0.42421
C         52.67440        58.42894        -0.06021
C         51.46509        59.16263        -0.13344
C         52.72314        61.27153         0.22328
C         51.46903        60.58354         0.05361
C         52.73955        62.74223         0.35673
C         51.43153        63.45363         0.44798
C         52.62476        65.40396         1.60326
C         51.33932        64.70731         1.24627
C         52.53921        66.87894         1.80135
C         51.33049        67.56380         1.96582
C         52.45658        69.76452         1.90740
C         51.29573        69.01784         2.08063
C         52.45969        71.21282         1.79691
C         51.18656        71.91178         1.86532
C         52.42036        74.05071         1.43989
C         51.20810        73.36411         1.65689
C         53.94878        46.38084        -0.49422
C         55.23106        48.47379        -0.74007
C         54.00119        47.74103        -0.83281
C         55.29928        49.86313        -0.85929
C         54.06742        50.62770        -1.18229
C         55.22274        52.70306        -0.55171
C         54.01678        52.05709        -0.77481
C         55.23704        54.10415        -0.11538
C         53.89776        54.85052        -0.07690
C         55.18356        57.00414        -0.04512
C         53.92135        56.31409        -0.10397
C         55.18312        58.38997         0.04170
C         53.92241        59.09757         0.45227
C         55.16509        61.31326         0.51202
C         53.93248        60.59626         0.29653
C         55.18332        62.65383         0.85912
C         53.95529        63.40676         0.89531
C         55.17778        65.51181         1.54216
C         53.91401        64.73575         1.25300
C         54.91420        66.96679         1.16055
C         53.75742        67.59761         1.58529
C         54.83932        69.84651         1.13770
C         53.79939        69.06766         1.93562
C         54.93762        71.26138         1.62309
C         53.63326        71.95090         1.60791
C         54.87889        74.07337         1.14740
C         53.66087        73.38062         1.42281
C         56.49837        50.59052        -0.71266
C         57.68962        52.74596        -0.58800
C         56.49718        52.00819        -0.65395
C         57.70947        54.16969        -0.47232
C         56.47638        54.88526        -0.26606
C         57.69420        57.00470        -0.20094
C         56.45204        56.27898        -0.17769
C         57.71778        58.40875        -0.05301
C         56.43820        59.14304        -0.06874
C         57.72500        61.25720         0.60391
C         56.44408        60.61286         0.23181
C         57.71294        62.56812         1.00492
C         56.44172        63.28546         1.41497
C         57.72552        65.38111         1.03529
C         56.48376        64.78377         1.14947
C         57.86321        66.75520         0.60715
C         55.96748        67.79313         0.63844
C         57.42239        69.80370         0.69518
C         56.14354        69.11298         0.95240
C         57.47438        71.25634         1.08462
C         56.20692        72.01040         1.38711
C         57.30229        74.10807         0.57942
C         56.14349        73.45296         1.05416
C         58.91583        54.88635        -0.51835
C         60.14694        57.02442        -0.39078
C         58.93759        56.29582        -0.36184
C         60.17362        58.41967        -0.18279
C         58.93315        59.12446         0.02116
C         60.20605        61.15550         0.53633
C         58.96708        60.52240         0.37725
C         60.28583        62.49463         1.14101
C         58.98284        63.24463         1.33126
C         60.17735        65.44882         1.21428
C         59.01033        64.71538         1.23040
C         60.15941        66.93881         1.28969
C         58.88183        67.60439         0.93578
C         60.00648        69.89815         0.79797
C         58.76606        69.06297         0.66705
C         59.90124        71.28487         0.28793
C         58.69669        72.02875         0.71140
C         59.66269        74.07136        -0.22742
C         58.55795        73.46277         0.37118
C         61.39293        59.14909        -0.20431
C         62.63064        61.28119         0.01670
C         61.43025        60.51374         0.12479
C         62.69824        62.65018         0.33429
C         61.56031        63.28196         1.04180
C         62.64954        65.58125         0.58850
C         61.51701        64.80467         1.16495
C         62.61446        66.98536         0.49639
C         61.43607        67.71951         1.01412
C         62.43320        69.88647         0.02145
C         61.35061        69.20952         0.76778
C         62.26367        71.23939        -0.38530
C         61.00953        71.95150        -0.17158
C         61.96356        74.00100        -1.11732
C         60.88639        73.36925        -0.50644
C         63.80908        63.44694         0.01434
C         64.90347        65.62233        -0.35652
C         63.79285        64.86903         0.11092
C         64.86788        67.00765        -0.43985
C         63.69728        67.72259        -0.06104
C         64.66130        69.83127        -0.99581
C         63.60323        69.15908        -0.31214
C         64.51524        71.20479        -1.36561
C         63.31491        71.90881        -1.05760
C         64.21808        73.93900        -2.10143
C         63.17146        73.29735        -1.43391
C         66.12089        67.73762        -0.85987
C         66.88074        69.80147        -2.02152
C         65.88168        69.15121        -1.33060
C         66.75242        71.17235        -2.41273
C         65.56156        71.87436        -2.06835
C         66.46784        73.88790        -3.13668
C         65.41571        73.24927        -2.43782
C         67.77661        71.84533        -3.11372
C         67.62757        73.18853        -3.46626
O         32.25066        60.85018        -2.26607
O         40.43732        66.47289        -1.69750
O         34.62944        58.84577         0.93471
O         59.67293        62.62100         2.46718
O         50.64496        49.18305        -3.11591
O         46.40688        51.47203        -3.18928
O         42.96193        67.26024         1.52859
O         39.45293        63.29883         1.26081
O         61.01724        67.40000         2.37651
O         35.84393        54.64380        -2.26874
O         47.07863        41.15778        -1.50322
O         31.86323        71.83265        -1.07683
O         48.27832        67.98195         3.14652
O         34.64068        65.20927        -2.41506
O         29.80858        71.70183         2.11186
O         56.84915        67.17699        -0.24865
O         42.30176        50.40619        -3.00348
O         61.90916        63.95089         2.28674
O         58.43896        71.61972         2.11937
O         60.84980        69.86666         1.98050
O         53.59623        50.37455        -2.56570
O         52.20469        63.51737        -0.80009
O         56.42951        60.15190        -1.17554
O         55.76572        71.62393         2.75023
O         43.75712        65.45128        -1.44503
O         49.14954        46.52425        -2.96762
O         43.91401        55.94934        -2.37131
O         27.84779        70.85767        -0.84881
O         35.49019        49.91994        -1.57813
O         47.20082        46.33325         0.05207
O         51.21829        51.03831         0.08851
O         49.33628        42.32126        -1.71188
O         47.07497        70.38337         3.20299
O         54.52018        54.31207         1.15036
O         46.98426        47.89666        -3.21890
O         41.00031        56.43648         1.05181
O         58.08620        69.47388        -0.57493
O         49.93897        52.66207        -2.82037
O         42.12593        41.19968        -1.70888
O         51.89170        64.60210         2.59769
O         40.15247        39.28077        -1.20337
H         40.90775        39.62238        -1.73842
O         44.22754        69.48772        -1.07323
H         43.41294        69.23048        -1.55626
O         43.96252        50.47091         0.23778
H         44.73689        50.92104         0.63645
O         48.80195        72.26193         3.88815
H         49.04299        71.39761         4.30161
O         35.57748        70.26968        -1.93497
H         35.48705        69.41470        -2.42746
O         47.83270        38.89525        -0.44945
H         47.41253        39.23760        -1.27280
O         30.55397        69.31704         2.21711
H         30.08508        70.00451         2.75277
O         26.52853        71.85948         2.44147
H         25.73786        72.34149         2.76316
O         56.36107        63.09047         2.87818
H         57.27510        63.13559         3.23691
O         47.77453        58.10112         1.39870
H         48.68151        57.80008         1.62361
O         50.00259        66.19151         3.39860
H         49.40434        66.76936         3.92740
O         47.60101        57.48295        -2.23721
H         47.59982        56.67829        -2.79674
O         44.90101        65.20341         2.05361
H         45.45528        65.75861         2.64160
O         36.02567        68.90024         1.44122
H         36.76514        68.45685         1.90847
O         30.55501        66.62146         1.75157
H         30.60349        67.49677         2.21483
O         66.84657        66.98864        -1.84274
H         66.31847        66.97180        -2.66675
O         46.55604        55.86361         0.93636
H         46.76853        56.68031         1.45903
O         54.32613        70.01413        -0.22345
H         54.37168        69.15107        -0.68760
O         36.75358        63.23640        -2.56246
H         36.02825        63.75482        -2.98631
O         45.46183        35.74095         2.43173
H         44.82462        35.68865         1.68932
O         48.32656        67.54643        -0.44661
H         47.69684        67.35314        -1.17361
O         38.81553        50.76634        -3.26439
H         38.89704        49.85714        -3.62417
O         46.57389        63.71127        -1.71140
H         47.43456        64.13249        -1.92320
O         46.49438        60.79660        -2.02717
H         46.45038        61.76737        -2.21154
O         38.61328        43.20059        -2.32783
H         39.27051        42.54857        -2.65110
O         42.63728        75.41058         0.67742
H         42.65482        75.09905        -0.25057
O         37.65526        57.23104         1.27666
H         37.82387        56.37225         1.71683
O         37.67090        48.24702         1.35565
H         38.56300        47.84926         1.25679
O         41.35728        46.06362        -3.23831
H         41.56431        45.11969        -3.41347
O         55.29565        65.58394         2.99901
H         55.48376        64.66282         3.31523
O         37.99808        58.30624        -2.18731
H         37.98743        59.19456        -2.60183
O         53.87213        58.90924         1.93672
H         53.81863        57.94241         2.10263
O         54.23885        69.08949         3.31958
H         53.63527        68.52575         3.84745
O         35.37654        67.63320        -2.57953
H         34.87404        66.94805        -3.08546
O         50.07468        69.76157         4.00543
H         49.53414        68.99832         4.31508
O         28.89711        63.66441        -2.47472
H         28.95760        62.77448        -2.88243
O         45.67961        37.92598         5.38908
H         44.84565        37.64673         5.82373
O         38.58567        46.13260        -2.80617
H         39.42571        46.21339        -3.32143
H         22.83774        75.10376         0.34890
H         25.29917        75.14777         0.31515
H         27.75143        75.20262         0.40799
H         30.25390        75.28010         0.68559
H         32.76630        75.23988         0.92205
H         35.18616        75.20152         1.10796
H         37.63098        75.19528         1.31875
H         40.10430        75.21227         1.47213
H         42.53509        74.66254         2.58518
H         45.07205        75.25742         1.61443
H         47.59988        75.20993         1.47070
H         50.00822        75.14287         1.35220
H         52.38951        75.14035         1.28892
H         54.81128        75.15363         0.94322
H         57.22003        75.17053         0.30053
H         59.60145        75.13214        -0.51650
H         61.89145        75.06613        -1.38459
H         64.11224        74.99698        -2.38481
H         66.36106        74.94451        -3.42125
H         21.95647        69.21132         0.02368
H         20.70394        71.35806         0.01035
H         20.70619        73.83948         0.13319
H         24.48876        64.96747        -0.16641
H         23.21879        67.09201        -0.07987
H         26.96489        60.79301        -0.21695
H         25.74329        62.87995        -0.15010
H         29.40919        56.48455        -0.19421
H         28.16273        58.66957        -0.34908
H         32.03423        52.24817         0.20879
H         30.68794        54.33747        -0.03311
H         35.19647        48.40412         1.41587
H         33.26404        50.41200         0.84383
H         37.02987        43.86510         0.19458
H         36.01205        45.99610         0.56309
H         39.27930        39.68621         0.63041
H         38.09101        41.68861         0.08085
H         41.50582        36.51141         3.52913
H         40.40933        38.00649         1.90498
H         44.79777        34.06066         6.09993
H         42.67315        34.96879         5.14843
H         46.93662        35.26410         5.79303
H         48.30758        36.96405         4.42877
H         49.61868        38.50223         3.10156
H         50.90608        40.15882         1.99033
H         52.25313        41.91902         1.02567
H         53.56612        43.84079         0.30887
H         54.86568        45.86261        -0.17748
H         56.14748        47.91581        -0.49508
H         57.45158        50.05069        -0.61054
H         58.64946        52.21335        -0.65914
H         59.86229        54.34640        -0.66776
H         61.09313        56.48727        -0.55294
H         62.32683        58.62694        -0.45917
H         63.51993        60.79616        -0.41330
H         64.68831        62.96970        -0.44411
H         65.81166        65.09437        -0.68254
H         66.79128        67.78950         0.04523
H         67.80418        69.25721        -2.26923
H         68.69605        71.30396        -3.37855
H         68.43434        73.69968        -4.01015
