         424
 CSIRO Nanostructure Databank - Neutral Graphene Oxide Data Set
C          1.26588         2.14614        -1.40035
C          1.22475         3.53233        -1.12690
C          2.45601         1.45166        -1.33742
C          2.38271         4.23213        -0.81413
C          1.13013         6.48986        -0.67726
C          1.17520         7.79853        -0.96459
C          2.35173         5.67197        -0.33158
C          2.46534         8.51348        -1.30101
C          1.32470        10.75155        -1.54021
C          1.31573        12.13539        -1.50866
C          2.45654        10.02040        -1.11974
C          2.46999        12.86472        -1.14060
C          1.30697        15.07535        -1.36298
C          1.33029        16.45722        -1.36630
C          2.48467        14.31440        -1.13322
C          2.54149        17.16205        -1.16383
C          2.58686        18.59359        -1.19470
C          3.67125         2.13227        -1.03767
C          3.63164         3.54153        -0.78657
C          4.90422         1.43585        -0.97909
C          4.86709         4.23942        -0.57163
C          3.64377         6.40888        -0.60430
C          3.66210         7.81949        -0.68974
C          4.85791         5.70271        -0.45188
C          4.83672         8.52607        -0.40470
C          3.60808        10.71710        -0.73531
C          3.64544        12.14158        -0.78387
C          4.76108         9.99487        -0.08493
C          4.88083        12.84742        -0.53908
C          3.70576        14.99707        -0.89256
C          3.73894        16.42630        -0.93208
C          4.91411        14.26159        -0.63064
C          4.97075        17.12422        -0.76071
C          3.76848        19.26538        -1.02990
C          4.99936        18.55487        -0.82273
C          6.11214         2.12137        -0.76955
C          6.07374         3.54517        -0.61605
C          7.37105         1.44105        -0.67526
C          7.36708         4.31253        -0.73079
C          6.05095         6.41118        -0.24297
C          6.04652         7.82864        -0.12990
C          7.30014         5.62153         0.05340
C          7.24813         8.56200         0.15925
C          6.08302        10.70921        -0.18590
C          6.10026        12.11829        -0.29093
C          7.27889         9.97618         0.05511
C          7.34004        12.82546        -0.16735
C          6.15085        14.96758        -0.47537
C          6.17984        16.39666        -0.55426
C          7.36363        14.24827        -0.26270
C          7.41266        17.09733        -0.44316
C          6.22017        19.23564        -0.69912
C          7.43868        18.53278        -0.52711
C          8.57016         2.11685        -0.38450
C          8.59772         3.54285        -0.31859
C          9.78549         1.40230        -0.09834
C          9.77617         4.23235         0.02295
C          8.55660         6.46975        -0.17867
C          8.47380         7.79409         0.59119
C          9.80096         5.66776         0.13836
C          9.76960         8.54694         0.45364
C          8.52893        10.68761         0.17102
C          8.55591        12.10323         0.06156
C          9.75493         9.97061         0.37535
C          9.79932        12.81201         0.15010
C          8.60488        14.95271        -0.16586
C          8.63052        16.37718        -0.26926
C          9.82413        14.23424         0.01597
C          9.87005        17.07718        -0.21972
C          8.67570        19.21343        -0.45507
C          9.89443        18.51214        -0.32395
C         10.94836         2.05882         0.23253
C         10.98863         3.49699         0.28355
C         12.16379         1.26274         0.65536
C         12.20089         4.18499         0.52203
C         10.97367         6.34744         0.43179
C         10.97520         7.80625         0.51971
C         12.21665         5.62304         0.57388
C         12.20394         8.47990         0.70033
C         10.97047        10.68959         0.49289
C         11.01717        12.09953         0.36547
C         12.18636         9.94223         0.83204
C         12.27626        12.80765         0.35584
C         11.06687        14.93410         0.03619
C         11.09061        16.35645        -0.09446
C         12.29642        14.21397         0.15564
C         12.33568        17.04983        -0.11978
C         11.14184        19.18685        -0.31038
C         12.35651        18.48090        -0.23320
C         13.47049         2.00725         0.48343
C         13.45422         3.46088         0.57016
C         14.63878         1.30273         0.40512
C         14.65071         4.15920         0.71491
C         13.42617         6.32731         0.71833
C         13.44045         7.77445         0.77264
C         14.66946         5.59755         0.85209
C         14.67177         8.47229         0.80619
C         13.50578        10.68376         0.78711
C         13.51722        12.11117         0.42104
C         14.74404         9.89239         0.67775
C         14.73778        12.76475         0.21503
C         13.54587        14.90220         0.06252
C         13.56124        16.32296        -0.07419
C         14.77531        14.17834         0.06682
C         14.80473        16.99889        -0.21714
C         13.61632        19.14978        -0.25955
C         14.81933        18.44466        -0.26886
C         15.93788         1.96523         0.22779
C         15.93824         3.49966         0.44428
C         17.20935         1.27518         0.41482
C         17.19402         4.12922         0.87171
C         15.87341         6.26502         1.00972
C         15.94956         7.70416         0.60105
C         17.11040         5.53196         1.46727
C         17.15873         8.42950         1.14120
C         15.94761        10.57391         0.52787
C         15.99079        11.95972        -0.05562
C         17.18767         9.91733         0.94270
C         17.27997        12.70356         0.20198
C         16.02542        14.86915        -0.10361
C         16.01698        16.26109        -0.27380
C         17.29487        14.12845        -0.03311
C         17.24566        16.99350        -0.76730
C         16.08107        19.12798        -0.22638
C         17.28619        18.44724        -0.32111
C         18.40619         1.98864         0.53713
C         18.36878         3.41967         0.83836
C         19.66818         1.33177         0.48495
C         19.64130         4.06099         1.25601
C         18.39529         6.31475         1.25790
C         18.43397         7.68107         1.14079
C         19.64820         5.57612         1.43882
C         19.67911         8.42667         1.12758
C         18.47999        10.59381         0.77229
C         18.48089        11.99732         0.43836
C         19.66593         9.86952         0.93459
C         19.73921        12.68209         0.40763
C         18.50343        14.80626        -0.15154
C         18.54912        16.23617        -0.51698
C         19.82387        14.07090        -0.16560
C         19.81865        16.99701        -0.23387
C         18.51977        19.12606        -0.15308
C         19.75978        18.47395        -0.08567
C         20.90574         2.01998         0.60137
C         20.91739         3.41394         0.94821
C         22.14228         1.35785         0.43849
C         22.12831         4.13498         1.05915
C         20.92505         6.29046         1.29958
C         20.89255         7.73404         1.21799
C         22.11174         5.56829         1.25035
C         22.15121         8.44598         1.09873
C         20.92142        10.57939         0.90236
C         20.92062        12.01121         0.72355
C         22.13416         9.89254         0.98931
C         22.15541        12.74518         0.89264
C         20.99202        14.86469         0.40279
C         20.99591        16.29335         0.32015
C         22.12793        14.18328         0.82628
C         22.17076        17.03671         0.55632
C         20.96315        19.16073         0.14003
C         22.18432        18.47398         0.36683
C         23.37450         2.04874         0.55613
C         23.37322         3.45595         0.84621
C         24.60248         1.35960         0.37777
C         24.61923         4.17849         0.83731
C         23.40959         6.30286         1.46581
C         23.34189         7.75016         1.05679
C         24.63203         5.58286         0.96527
C         24.57895         8.48253         0.62122
C         23.38407        10.61764         1.10690
C         23.35587        12.06702         1.17398
C         24.57678         9.90905         1.10087
C         24.59173        12.81148         1.28394
C         23.31781        14.94401         1.36359
C         23.38668        16.37092         0.90237
C         24.61765        14.19587         1.20311
C         24.60617        17.05018         0.89788
C         23.40812        19.16147         0.46386
C         24.62604        18.47892         0.67366
C         25.85861         2.01395         0.46630
C         25.85414         3.47260         0.62594
C         27.05764         1.29843         0.45816
C         27.05914         4.17560         0.59151
C         25.84193         6.31400         0.84487
C         25.86767         7.74465         0.85798
C         27.07126         5.59525         0.71454
C         27.07608         8.45367         0.82181
C         25.85396        10.56449         1.39186
C         25.86048        12.09187         1.48290
C         27.11063         9.89864         1.01962
C         27.12430        12.79559         1.23238
C         25.86559        14.92121         1.17236
C         25.85943        16.34089         1.05970
C         27.10547        14.22040         1.15685
C         27.09369        17.04781         1.03303
C         25.86335        19.16264         0.66702
C         27.08806        18.49340         0.83452
C         28.36165         1.99170         0.76083
C         28.30759         3.41486         0.19466
C         29.60825         1.30028         0.24641
C         29.59453         4.12425         0.53930
C         28.28745         6.33169         0.69638
C         28.31100         7.72888         0.72828
C         29.56343         5.59236         0.72974
C         29.57480         8.45865         0.70688
C         28.28799        10.63122         0.96186
C         28.31719        12.07119         1.07631
C         29.51814         9.94219         0.43792
C         29.57379        12.79230         0.97823
C         28.34933        14.93858         1.13643
C         28.31822        16.35722         1.13254
C         29.58637        14.21795         1.10254
C         29.59220        17.12895         1.36025
C         28.31261        19.18430         0.69549
C         29.55831        18.53649         0.81067
C         30.81039         1.99951         0.01827
C         30.85053         3.44057         0.14587
C         32.03628         1.35087        -0.30955
C         32.03362         4.15727        -0.00845
C         30.77101         6.35893         0.34511
C         30.77058         7.80452         0.62919
C         32.01750         5.64201        -0.01888
C         32.09897         8.48199         0.82337
C         30.81973        10.65582         0.69952
C         30.78853        12.08339         0.82324
C         32.00961         9.96117         0.58027
C         32.05973        12.78920         1.07050
C         30.84335        14.94786         1.05102
C         30.84304        16.36910         0.99285
C         32.07982        14.25930         1.02167
C         32.03837        17.07297         0.76919
C         30.76037        19.19567         0.56131
C         32.01874        18.51586         0.58355
C         33.24884         2.06938        -0.45897
C         33.25941         3.50038        -0.30390
C         34.46712         1.41851        -0.78250
C         34.47257         4.25346        -0.45202
C         33.29050         6.40053        -0.01364
C         33.28689         7.77476         0.18730
C         34.49605         5.67960        -0.29562
C         34.51610         8.52346         0.05449
C         33.24696        10.71720         0.19769
C         33.34382        12.03832         0.95152
C         34.51265         9.91009         0.19278
C         34.67614        12.78397         0.97302
C         33.30814        14.95311         0.82693
C         33.28047        16.37323         0.66149
C         34.56410        14.27069         0.71193
C         34.49155        17.08474         0.42276
C         33.21199        19.19488         0.34014
C         34.46326        18.51338         0.26850
C         35.67116         2.14042        -0.94099
C         35.68239         3.57026        -0.75450
C         36.87616         1.48621        -1.30051
C         36.90819         4.29653        -0.86990
C         35.73373         6.39189        -0.36773
C         35.74889         7.82204        -0.23537
C         36.93520         5.69365        -0.63824
C         36.95177         8.54309        -0.51319
C         35.82800        10.64769         0.22996
C         35.66801        12.15950        -0.01466
C         36.85096        10.03984        -0.73334
C         37.00784        12.85247         0.08472
C         35.75699        14.95427         0.46704
C         35.73406        16.39148         0.34743
C         37.01356        14.22699         0.27801
C         36.93570        17.11959         0.17900
C         35.66099        19.20095         0.00166
C         36.89972        18.52521        -0.05564
C         38.07041         2.20502        -1.50088
C         38.10680         3.61077        -1.26752
C         39.25803         1.54553        -1.97341
C         39.30642         4.35264        -1.53343
C         38.25936         6.40981        -0.51220
C         38.15940         7.89716        -0.74536
C         39.36741         5.75582        -1.30157
C         39.35607         8.63833        -1.06263
C         38.16389        10.77481        -0.59281
C         38.19740        12.10903        -0.21437
C         39.37364        10.06430        -0.95197
C         39.54751        12.77774        -0.04601
C         38.28069        14.94793         0.21255
C         38.22796        16.43228         0.28688
C         39.46880        14.29016         0.03315
C         39.47798        17.20271        -0.16047
C         38.07774        19.20677        -0.52384
C         39.27846        18.55211        -0.71789
C         40.38878         2.25702        -2.26744
C         40.43747         3.67764        -2.07763
C         41.58625         4.43109        -2.41523
C         40.51197         6.49044        -1.65328
C         40.54231         7.94785        -1.45712
C         41.61271         5.80131        -2.23076
C         41.69831         8.69874        -1.70983
C         40.56350        10.79554        -1.20767
C         40.49091        12.32274        -1.17478
C         41.70641        10.09548        -1.59793
C         41.82228        13.02328        -1.03731
C         40.79570        15.03887         0.08023
C         40.65326        16.41446        -0.56538
C         41.93776        14.24289        -0.50160
C         41.56268        16.97545        -1.41521
C         40.34293        19.10004        -1.51662
C         41.42057        18.33452        -1.86598
O         31.10075         6.13861        -1.09293
O         12.83259        10.44165         2.06933
O         15.97658         2.91778        -0.89903
O         19.60323         4.66159         2.60906
O         32.73630        12.09654         2.26894
O         29.67408         4.69140         1.90476
O         39.12822        17.05887         1.26694
O         16.99105         9.27343         2.29637
O         19.51292        16.51892        -1.62119
O         25.88235        11.25173         2.69049
O         28.47008         2.05768         2.21629
H         28.95667         2.87725         2.46203
O         16.19704         7.67483        -0.86038
H         15.45180         7.19448        -1.28092
O         23.59550         6.33396         2.93760
H         22.75850         6.66008         3.33314
O         36.40370        10.43201         1.54081
H         36.00365        11.09150         2.16362
O         40.14225        12.29974         1.18545
H         39.66515        12.70631         1.93795
O         16.96875         5.35140         2.91142
H         17.83894         5.00446         3.23120
O         17.06056        17.03959        -2.21506
H         17.95834        17.16700        -2.60120
O          2.30729         5.55232         1.13446
H          2.45532         6.44644         1.50946
O         39.88502        12.73953        -2.42981
H         40.50367        12.51243        -3.15461
O         29.67417        17.29163         2.82746
H         30.48379        17.81260         3.01592
O          2.63286         8.34080        -2.75184
H          2.69733         7.37858        -2.92993
O         15.97498        11.74655        -1.52453
H         16.12437        12.61957        -1.94804
O         24.49354         8.56475        -0.86356
H         23.64545         9.01068        -1.07873
O          8.64344         6.88631        -1.56037
H          8.42449         6.10872        -2.12953
O         35.15482        12.44367        -1.32756
H         35.54931        11.79542        -1.95980
O         33.01205        11.10049        -1.20617
H         32.77873        10.28896        -1.70484
O         29.38740        10.02020        -1.03389
H         28.55348         9.56400        -1.27832
O          7.23904         5.19202         1.43245
H          7.40922         5.97835         2.00522
O          8.33335         7.52075         2.02903
H          8.22559         8.38106         2.48732
O         23.10434        15.02439         2.82991
H         23.15917        14.10978         3.18197
O         35.21389        12.65804         2.31986
H         34.42946        12.66426         2.92149
O          7.50257         4.59407        -2.16783
H          7.55805         3.73112        -2.63076
O         12.20606        -0.00580        -0.00277
H         12.36525         0.14989        -0.95606
O          4.43990        10.02459         1.36973
H          4.39424        10.96920         1.63282
O         20.15171        13.87581        -1.59115
H         20.11788        14.77822        -1.99732
O         36.38553        10.20813        -2.11182
H         37.12594         9.96770        -2.70792
O         41.13001        15.26392         1.47683
H         40.47441        15.92066         1.82126
O         38.64995         6.25891         0.90732
H         38.71081         5.29718         1.09065
O         28.27234         3.27191        -1.25065
H         28.24855         4.16539        -1.65254
O         32.38180         8.35669         2.27144
H         31.83575         9.01947         2.74664
H          0.33203         1.61932        -1.64181
H          0.25421         4.04720        -1.15115
H          2.48066         0.36879        -1.52703
H          0.15027         6.02008        -0.49692
H          0.22949         8.34535        -1.10490
H          0.43030        10.21927        -1.89180
H          0.40414        12.66340        -1.81808
H          0.34942        14.56500        -1.53177
H          0.40264        17.02191        -1.53891
H          1.65152        19.14725        -1.36292
H          4.91340         0.34467        -1.12048
H          3.79340        20.36431        -1.06474
H          7.38098         0.34286        -0.74451
H          6.23675        20.33417        -0.75734
H          9.77714         0.30228        -0.12118
H          8.69024        20.31098        -0.52881
H         12.04477         1.04082         1.75506
H         11.15849        20.28378        -0.39302
H         14.60970         0.20428         0.47443
H         13.63348        20.24938        -0.29456
H         17.22845         0.17523         0.41224
H         16.08380        20.21602        -0.05737
H         19.68680         0.25128         0.27968
H         18.49283        20.21393         0.01637
H         22.15143         0.28177         0.21067
H         20.95803        20.26093         0.15374
H         24.57794         0.27275         0.20622
H         23.42291        20.25308         0.32661
H         27.03034         0.20019         0.38135
H         25.86935        20.24903         0.49056
H         29.61821         0.20030         0.19275
H         28.29036        20.25389         0.43418
H         32.04869         0.25715        -0.42964
H         30.74315        20.25820         0.27314
H         34.47455         0.32711        -0.92125
H         33.19152        20.28426         0.18634
H         36.86703         0.39883        -1.46720
H         35.63282        20.28680        -0.17265
H         39.22928         0.45713        -2.12847
H         37.96330        20.23814        -0.89095
H         41.28090         1.74674        -2.65919
H         42.46005         3.91703        -2.84117
H         42.51424         6.35451        -2.52610
H         42.63151         8.19993        -2.00319
H         42.64197        10.62808        -1.81839
H         42.72728        12.52725        -1.42198
H         42.93626        14.69880        -0.41204
H         42.44387        16.40629        -1.74430
H         40.24891        20.13244        -1.88346
H         42.20601        18.75467        -2.50956
