         204
 CSIRO Nanostructure Databank - Neutral Graphene Oxide Data Set
C        -11.15197         0.67810        -0.05015
C         -9.93368         1.46914         0.04917
C         -8.66797         0.76398         0.10689
C         -7.47151         1.43160         0.28975
C         -6.19558         0.74209         0.22189
C         -4.99572         1.45064         0.35471
C         -3.72747         0.74293         0.29872
C         -2.53328         1.44601         0.33683
C         -1.26917         0.75368         0.08710
C          0.04742         1.47678         0.35534
C          1.26131         0.70106         0.62703
C          2.46160         1.44216         0.87247
C          3.72349         0.68899         1.07736
C          5.03171         1.46682         1.16098
C          6.26048         0.66939         0.80092
C          7.52215         1.44995         0.78288
C          8.79805         0.70853         0.49345
C          9.96963         1.45733        -0.01427
C         11.13518         0.68188        -0.36152
C         -9.98664         2.84855         0.05174
C         -8.80770         3.65944         0.36494
C         -7.46301         2.88124         0.54935
C         -6.21911         3.62520         0.33305
C         -4.99001         2.90110         0.35517
C         -3.77736         3.61741         0.38174
C         -2.54031         2.88244         0.80047
C         -1.26976         3.63573         0.56181
C         -0.03858         2.87404         0.85120
C          1.25093         3.60534         1.04788
C          2.48906         2.84148         0.85151
C          3.71362         3.53961         0.42388
C          4.99608         2.77559         0.39457
C          6.26667         3.52316         0.24517
C          7.46613         2.88600         0.39117
C          8.71235         3.58609         0.07083
C          9.92880         2.83428        -0.09098
C         -8.70097         5.06297        -0.01243
C         -7.48010         5.74194         0.00197
C         -6.22992         5.02247         0.17447
C         -4.98625         5.72445         0.00711
C         -3.74062         5.01128         0.17581
C         -2.49361         5.72279         0.16766
C         -1.25380         5.01931         0.43597
C         -0.01684         5.76739         0.50072
C          1.23382         5.09610         0.91068
C          2.54298         5.80026         0.60879
C          3.76860         5.01629         0.33594
C          4.92440         5.65978        -0.03039
C          6.17285         4.88451        -0.41327
C          7.44695         5.68354        -0.26037
C          8.67614         4.95714        -0.16450
C         -7.41929         7.15132        -0.24723
C         -6.20421         7.82369        -0.36151
C         -4.97665         7.09881        -0.26793
C         -3.68828         7.76803        -0.67282
C         -2.45248         7.10188        -0.12357
C         -1.23761         7.81278        -0.10756
C         -0.00057         7.13517         0.18582
C          1.25018         7.85020         0.02141
C          2.48139         7.17661         0.09409
C          3.70457         7.82721        -0.22143
C          4.93292         7.10006        -0.22104
C          6.15332         7.77589        -0.45657
C          7.40025         7.05686        -0.38406
C         -6.14652         9.26688        -0.53811
C         -4.96472         9.94547        -0.55739
C         -3.68892         9.26679        -0.49345
C         -2.49586         9.93666        -0.44053
C         -1.22684         9.23909        -0.35242
C         -0.02227         9.91986        -0.44545
C          1.23688         9.24210        -0.34046
C          2.45261         9.90828        -0.57232
C          3.68989         9.22603        -0.52825
C          4.93815         9.87784        -0.76606
C          6.12544         9.17893        -0.71041
C        -11.14556        -0.68315        -0.00212
C         -9.91380        -1.44036        -0.01546
C         -8.65644        -0.67415        -0.34967
C         -7.39035        -1.41255        -0.00665
C         -6.18419        -0.70015         0.10453
C         -4.93612        -1.40699         0.10043
C         -3.71216        -0.69333         0.14331
C         -2.47218        -1.39950         0.08249
C         -1.23056        -0.70825         0.09123
C          0.00973        -1.38861         0.08529
C          1.25874        -0.69723         0.35172
C          2.47384        -1.44531         0.36245
C          3.73313        -0.79290         0.79029
C          5.01616        -1.42912         0.47885
C          6.24202        -0.71044         0.60395
C          7.50636        -1.44095         0.40486
C          8.72459        -0.74933         0.25637
C          9.90871        -1.44662        -0.10850
C         11.11587        -0.68323        -0.37489
C         -9.88419        -2.80738         0.07323
C         -8.64494        -3.55821         0.01332
C         -7.39826        -2.83166        -0.00519
C         -6.16919        -3.54875        -0.00017
C         -4.93075        -2.83371         0.00762
C         -3.70166        -3.53963        -0.07979
C         -2.46515        -2.82065        -0.05235
C         -1.22772        -3.48944        -0.22154
C          0.00905        -2.80955        -0.11103
C          1.25515        -3.53825        -0.11504
C          2.48864        -2.83260         0.09370
C          3.72354        -3.57543         0.12590
C          5.03802        -2.83728        -0.01928
C          6.22479        -3.57680         0.68225
C          7.49596        -2.85082         0.34027
C          8.67249        -3.56550        -0.02036
C          9.86907        -2.83861        -0.26249
C         -8.63326        -4.95073         0.01549
C         -7.41304        -5.69010        -0.03205
C         -6.17293        -4.97463        -0.04306
C         -4.94275        -5.68617        -0.12106
C         -3.70587        -4.97092        -0.16994
C         -2.49714        -5.67901        -0.34918
C         -1.26073        -4.91675        -0.56007
C          0.05854        -5.68174        -0.56132
C          1.28128        -4.94590        -0.22275
C          2.47532        -5.68135        -0.00626
C          3.70536        -4.96352         0.15891
C          4.93472        -5.76045         0.56593
C          6.22236        -5.02322         0.33494
C          7.39920        -5.69651        -0.04192
C          8.61872        -4.98199        -0.17134
C         -7.38916        -7.10620        -0.06871
C         -6.18232        -7.81830        -0.14213
C         -4.93621        -7.10732        -0.18725
C         -3.70318        -7.81368        -0.28277
C         -2.47263        -7.09649        -0.37351
C         -1.22430        -7.81670        -0.39404
C          0.01178        -7.13523        -0.36635
C          1.23980        -7.82964        -0.22602
C          2.46456        -7.11416        -0.07847
C          3.70858        -7.83926        -0.09961
C          4.92603        -7.16792         0.03405
C          6.16729        -7.84107        -0.20607
C          7.36179        -7.12345        -0.24453
C         -6.14400        -9.25669        -0.17789
C         -4.95852        -9.93729        -0.24212
C         -3.69508        -9.24839        -0.29163
C         -2.47573        -9.93940        -0.33148
C         -1.23330        -9.25433        -0.35033
C          0.00429        -9.94828        -0.34854
C          1.23113        -9.26930        -0.29015
C          2.48387        -9.95783        -0.35771
C          3.68972        -9.27093        -0.32163
C          4.95408        -9.94993        -0.47465
C          6.13255        -9.26512        -0.45440
O          0.46575         3.09050         2.21126
O          5.95150        -3.42486         2.11679
H          6.77812        -3.63124         2.60272
O          5.39126        -2.86037        -1.43394
H          4.67162        -2.42399        -1.93631
O          8.44634         1.11381         1.87798
O          6.05085         4.60985        -1.84969
H          5.30573         3.96566        -1.94013
O          5.19087         1.87105         2.54950
H          4.98645         1.07847         3.09598
O          3.62700        -0.25411         2.19314
O         -8.65217        -0.58800        -1.82932
H         -8.64685        -1.50780        -2.17096
O         -0.56949        -5.24066        -1.81776
O         -2.63648         2.78192         2.28434
H         -1.72617         2.83784         2.65352
O          4.78808        -5.90217         2.03103
H          4.94033        -4.99851         2.40619
O         -8.23776         3.33845         1.68778
O         -0.46216         1.35917        -1.01103
O         -3.60581         7.55707        -2.13746
H         -4.38968         7.99453        -2.53346
O          2.00151         5.73001         1.98608
O          4.21527         2.82083        -0.84181
H         12.02526        -1.23935        -0.64658
H         12.05637         1.22013        -0.63080
H         10.83142         3.38085        -0.40559
H          9.62258         5.50506        -0.29483
H          8.33754         7.63473        -0.40389
H          7.07690         9.70236        -0.88521
H          4.94284        10.95520        -0.98704
H          2.43997        10.98116        -0.81694
H         -0.02397        11.00243        -0.64389
H         -2.48399        11.03819        -0.43397
H         -4.96478        11.04500        -0.61123
H         -7.09705         9.81792        -0.59235
H         -8.36070         7.71377        -0.33845
H         -9.60639         5.58765        -0.35374
H        -10.93728         3.35907        -0.16664
H        -12.10989         1.21898        -0.07390
H        -12.09646        -1.23695         0.02880
H        -10.82335        -3.36693         0.20773
H         -9.58673        -5.49975         0.04187
H         -8.34068        -7.65881        -0.04587
H         -7.09516        -9.80838        -0.14420
H         -4.95547       -11.03729        -0.25821
H         -2.47856       -11.03991        -0.32154
H         -0.00063       -11.04811        -0.38637
H          2.48319       -11.05205        -0.47568
H          4.94687       -11.03745        -0.64058
H          7.08522        -9.79284        -0.60935
H          8.30363        -7.64745        -0.46517
H          9.53645        -5.52839        -0.43246
H         10.77275        -3.37930        -0.58022
