         664
 CSIRO Nanostructure Databank - Neutral Graphene Oxide Data Set
C          5.95665        31.84277         0.67413
C          5.98163        33.19959         0.71471
C          8.40477        27.44643         0.62206
C          8.47843        28.94294         0.84079
C          7.17180        29.69365         0.74316
C          8.43608        31.78889         0.43832
C          7.17775        31.05641         0.61516
C          8.46699        33.18685         0.54900
C          7.23096        33.94459         0.72677
C          8.55967        36.03353         1.08923
C          7.25856        35.30761         0.85821
C          8.52382        37.51147         0.79957
C         10.79415        23.12612         0.28268
C         10.74264        24.53227         0.12972
C          9.58331        25.29008         0.32757
C         10.78637        27.47525         0.06211
C          9.54635        26.73323         0.30904
C         10.82395        28.84441        -0.02104
C          9.50836        29.58209        -0.09193
C         10.82390        31.74071        -0.12814
C          9.62570        31.07160         0.12944
C         10.87137        33.17501        -0.02971
C          9.70055        33.88937         0.36400
C         10.89421        36.00272         0.13256
C          9.73334        35.31314         0.46041
C         10.85894        37.49347        -0.11742
C          9.64598        38.21751         0.42442
C         10.91980        40.36216         0.21734
C          9.70320        39.64076         0.41089
C         10.94800        41.77595         0.18356
C         13.18134        18.84905        -0.13489
C         13.19129        20.20994         0.04732
C         11.98971        20.97633         0.18392
C         13.26405        23.06747        -0.10277
C         11.99319        22.37751         0.16485
C         13.27282        24.48498        -0.21240
C         11.99972        25.22139        -0.24607
C         13.31382        27.41982        -0.01521
C         12.01867        26.71389        -0.23174
C         13.30549        28.88673        -0.21289
C         12.06760        29.57575        -0.20860
C         13.28867        31.68555        -0.47081
C         12.06216        30.98987        -0.32856
C         13.20563        33.12326        -0.96696
C         12.06882        33.88934        -0.30774
C         13.34585        36.00399        -0.35951
C         12.07857        35.28717        -0.22358
C         13.43010        37.44365         0.02110
C         12.14501        38.19789         0.25359
C         13.40155        40.35270         0.06437
C         12.16809        39.66227         0.14232
C         13.40422        41.76288         0.06004
C         12.16913        42.48239         0.10038
C         13.37089        44.60760        -0.29949
C         12.18126        43.90947        -0.00924
C         13.30500        46.07512        -0.68008
C         15.73432        14.48766        -0.00209
C         15.71794        15.88511        -0.09664
C         14.43248        16.58522        -0.33773
C         15.71885        18.79025        -0.21673
C         14.42209        18.08719        -0.36340
C         15.73706        20.18415        -0.18843
C         14.50358        20.94250         0.23555
C         15.64081        22.99770        -0.91109
C         14.44516        22.35492        -0.26095
C         15.67729        24.49141        -0.66945
C         14.51403        25.17370        -0.36511
C         15.82716        27.36561        -0.46446
C         14.58252        26.63646        -0.12900
C         15.83924        28.83431        -0.08225
C         14.52148        29.57858        -0.25767
C         15.78642        31.73235        -0.08692
C         14.50454        30.98858        -0.36365
C         15.79298        33.18378        -0.48028
C         14.57486        33.89301        -1.05959
C         15.78204        36.06267        -0.46153
C         14.49959        35.32674        -0.59054
C         15.80531        37.50629        -0.90341
C         14.62396        38.23423        -0.31153
C         15.89138        40.33097        -0.36565
C         14.64897        39.61435        -0.16777
C         15.92307        41.76472        -0.30488
C         14.69831        42.52437         0.17091
C         15.81698        44.66811        -0.72064
C         14.58859        43.93593        -0.35437
C         15.83938        46.12997        -0.46662
C         14.59512        46.81947        -0.40074
C         15.78586        48.90347         0.06487
C         14.57835        48.18410        -0.16671
C         15.78307        50.29856         0.27707
C         18.13498        10.16983         0.32492
C         17.74857        11.41881         0.74846
C         16.78045        12.34022         0.23414
C         18.10269        14.56123         0.83528
C         16.88595        13.72910         0.34625
C         18.20930        15.82724        -0.05315
C         16.92230        16.62262        -0.05871
C         18.17837        18.75584        -0.06716
C         16.93744        18.03690        -0.15539
C         18.17650        20.15839        -0.27329
C         16.97157        20.89017        -0.33568
C         18.14015        23.02962        -0.73523
C         16.96810        22.32610        -0.59335
C         18.19084        24.45871        -1.14871
C         16.89371        25.23352        -1.05809
C         18.21405        27.41948        -1.33410
C         16.93806        26.70867        -0.89085
C         18.27269        28.85424        -0.86944
C         16.98039        29.55580        -0.76296
C         18.28478        31.72133        -0.56153
C         16.98758        31.03644        -0.68464
C         18.27408        33.11289        -0.32654
C         16.99588        33.82542        -0.41328
C         18.35582        35.96454        -0.75363
C         17.04593        35.30453        -0.40088
C         18.31381        37.46258        -0.52284
C         17.12199        38.18042        -0.59728
C         18.37789        40.28053        -0.52768
C         17.12285        39.60579        -0.50939
C         18.37817        41.73941        -0.90957
C         17.10003        42.44713        -0.53728
C         18.40952        44.65138        -0.62338
C         17.11017        43.90700        -0.77537
C         18.35730        46.13104        -0.34441
C         17.04405        46.81621        -0.24721
C         18.24573        48.90143         0.39556
C         17.03392        48.20434         0.05214
C         18.20123        50.25243         0.73187
C         16.97247        50.98474         0.58466
C         18.17331        53.13153         0.84521
C         16.98683        52.40589         0.63736
C         18.23457        54.49618         0.54950
C         20.67709         6.01286         0.89544
C         20.66160         7.41965         0.84342
C         19.45046         8.14858         0.67627
C         20.63675        10.28312         0.90161
C         19.39841         9.54321         0.71034
C         20.70619        11.71471         0.94527
C         19.56555        12.52961         1.19823
C         20.67602        14.55468         0.56988
C         19.45639        13.85512         0.81862
C         20.67260        15.97652         0.45805
C         19.43143        16.66667         0.27682
C         20.61197        18.83944         0.68425
C         19.40222        18.05477         0.20856
C         20.69765        20.23501         0.12241
C         19.46553        20.86222        -0.40520
C         20.61102        23.11081        -0.04542
C         19.44417        22.34015        -0.62386
C         20.69602        24.54539        -0.51742
C         19.55398        25.17740        -1.28323
C         20.68634        27.37476        -0.92337
C         19.49917        26.67841        -1.03288
C         20.72213        28.84082        -0.88087
C         19.45983        29.55039        -0.79121
C         20.72664        31.69062        -0.50297
C         19.48928        30.99791        -0.61351
C         20.72574        33.09985        -0.27213
C         19.49463        33.79896        -0.19679
C         20.76355        35.99016        -0.01680
C         19.44401        35.28208         0.08514
C         20.74906        37.38257        -0.02085
C         19.54251        38.13347        -0.26019
C         20.85309        40.25924        -0.23630
C         19.56920        39.56161        -0.34429
C         20.87542        41.72784        -0.48493
C         19.61768        42.49068        -0.45140
C         20.83388        44.58042         0.08313
C         19.63590        43.86277        -0.30190
C         20.76051        46.00818         0.61010
C         19.53696        46.81396         0.23248
C         20.73293        48.90290         0.82095
C         19.50295        48.16243         0.48904
C         20.69766        50.25157         1.14628
C         19.36313        50.89610         1.46528
C         20.67047        53.21278         1.43483
C         19.37325        52.43171         1.38017
C         20.64859        54.61274         0.98294
C         19.45704        55.23888         0.57864
C         20.66433        57.34183        -0.00619
C         19.47025        56.60849         0.15990
C         20.65678        58.65432        -0.45836
C         23.13713         3.19459         1.12610
C         21.92281         3.87727         1.05697
C         23.13445         6.01290         0.99500
C         21.89458         5.29477         0.98942
C         23.13325         7.43316         0.93628
C         21.89674         8.14778         0.89204
C         23.13096        10.27601         0.80924
C         21.87902         9.56902         0.87336
C         23.15618        11.69015         0.67439
C         21.92406        12.41563         0.71757
C         23.15161        14.54655         0.50924
C         21.91290        13.83678         0.61144
C         23.15210        15.96584         0.48133
C         21.91206        16.69127         0.49689
C         23.13600        18.82240         0.56948
C         21.92175        18.10373         0.52862
C         23.13651        20.25608         0.47194
C         21.88254        20.91674         0.13609
C         23.10317        23.10719         0.29605
C         21.93881        22.36258        -0.32242
C         23.08940        24.60483         0.17161
C         21.85888        25.25308        -0.35394
C         23.16120        27.33156        -0.70083
C         21.93775        26.66085        -0.69024
C         23.14083        28.71378        -1.33354
C         21.92444        29.52850        -0.90049
C         23.17450        31.68126        -0.66199
C         21.97109        30.96982        -0.69344
C         23.21858        33.09785        -0.32363
C         21.97495        33.82117        -0.10092
C         23.21270        35.94075         0.41458
C         21.96679        35.21944         0.11174
C         23.25930        37.41607         0.32550
C         21.93647        38.12893         0.53219
C         23.26954        40.26711         0.49618
C         21.97648        39.58557         0.14404
C         23.30995        41.72979         0.26871
C         22.16491        42.50557        -0.16627
C         23.23023        44.62252         0.72093
C         22.04998        43.92771         0.21646
C         23.25511        46.00375         0.75785
C         22.03897        46.77196         0.26758
C         23.19713        48.88295         0.96730
C         21.98599        48.20169         0.75790
C         23.22271        50.28446         1.20223
C         21.94779        50.97429         1.61544
C         23.13121        53.16860         1.19799
C         21.96820        52.48424         1.35785
C         23.17845        54.66061         1.25805
C         21.86910        55.46950         1.20164
C         23.21659        57.40943         0.28672
C         21.96369        56.56759         0.12766
C         23.19138        58.85799         0.03008
C         21.85888        59.50359        -0.42846
C         23.18416        61.36063        -1.35712
C         21.98001        60.70364        -1.24418
C         24.34971         3.88454         1.12084
C         25.59703         6.02393         1.01852
C         24.37485         5.30171         1.05083
C         25.61204         7.42305         0.93306
C         24.36990         8.14106         0.90631
C         25.60446        10.27207         0.74298
C         24.36576         9.56070         0.81646
C         25.60816        11.67594         0.63866
C         24.39318        12.38854         0.56449
C         25.60006        14.53985         0.32255
C         24.39155        13.83556         0.45949
C         25.61923        15.95651         0.39643
C         24.38564        16.67455         0.48483
C         25.61710        18.78176         0.69710
C         24.38993        18.09947         0.57843
C         25.59879        20.26900         1.00354
C         24.34925        20.97918         0.52357
C         25.58213        23.15306         0.33530
C         24.38936        22.38602         0.35250
C         25.57894        24.56001         0.23702
C         24.38230        25.30795         0.05160
C         25.66661        27.34369        -0.50236
C         24.39035        26.65998        -0.38172
C         25.76670        28.70229        -1.19338
C         24.45313        29.49625        -1.26350
C         25.72356        31.66782        -0.72982
C         24.44228        30.97029        -0.98679
C         25.68170        33.16636        -0.92310
C         24.43316        33.79241        -0.33819
C         25.71965        36.00562        -0.10831
C         24.53620        35.16957         0.15991
C         25.70289        37.37010         0.03892
C         24.45577        38.08328         0.22011
C         25.77603        40.29174         0.33638
C         24.50751        39.56888        -0.11090
C         25.78046        41.66348         0.70591
C         24.48188        42.37374         0.84910
C         25.73374        44.52524         1.35379
C         24.42221        43.83133         1.13927
C         25.72386        46.03662         1.37138
C         24.45091        46.75154         1.06070
C         25.71744        48.87218         1.31791
C         24.43771        48.13105         1.02391
C         25.65072        50.32988         0.94795
C         24.45052        51.00402         1.08124
C         25.69573        53.25315         0.93228
C         24.40068        52.47971         0.71329
C         25.71317        54.61058         0.74496
C         24.45580        55.36991         0.93451
C         25.68298        57.47718         0.28305
C         24.41911        56.78608         0.49165
C         25.66836        58.81380        -0.14438
C         24.45475        59.52224        -0.33914
C         24.40278        60.80720        -0.88852
C         26.84049         8.15863         0.82725
C         28.08141        10.26897         0.44865
C         26.85063         9.53590         0.72025
C         28.11361        11.62048         0.35918
C         26.90817        12.43987         0.75939
C         28.13192        14.54765         0.21065
C         26.85712        13.76801        -0.00166
C         28.12066        15.94340         0.38939
C         26.85976        16.66996         0.45534
C         28.12778        18.77004         0.85733
C         26.83885        18.06529         0.66056
C         28.15325        20.28257         0.78628
C         26.85409        20.94304         0.47078
C         28.15753        23.12191         0.16775
C         26.86049        22.41077         0.20493
C         28.14805        24.52567         0.08801
C         26.87494        25.30779         0.45573
C         28.09876        27.43815        -0.11973
C         26.82379        26.70433        -0.13727
C         28.12096        28.88197        -0.42573
C         26.94422        29.53456        -0.68782
C         28.19493        31.71839        -0.59136
C         26.91661        30.98872        -0.68148
C         28.19012        33.11378        -0.62250
C         26.91275        33.84133        -0.31763
C         28.21410        35.96916        -0.03918
C         26.96510        35.33973        -0.63738
C         28.21325        37.46515         0.07601
C         26.93072        38.18110        -0.37479
C         28.21984        40.29257         0.31202
C         26.98529        39.60542         0.17227
C         28.23413        41.69588         0.59708
C         26.99074        42.38141         0.82729
C         28.18633        44.54920         0.99776
C         27.00247        43.81838         1.06323
C         28.16597        45.99192         0.93964
C         26.99681        46.70612         1.07752
C         28.10846        48.87986         0.25215
C         26.90249        48.14110         0.71490
C         28.07856        50.39203         0.03540
C         26.95145        51.04060         0.82953
C         28.21463        53.23525         0.46977
C         26.97750        52.52949         0.89333
C         28.16750        54.62707         0.36787
C         26.94374        55.34639         0.51473
C         26.90030        56.73852         0.33783
C         29.35937        12.34053        -0.11689
C         30.56700        14.51456         0.21494
C         29.35853        13.83397         0.14303
C         30.60368        15.93344         0.34254
C         29.36281        16.64783         0.45607
C         30.58803        18.79018         0.51016
C         29.38871        18.06256         0.60663
C         30.57856        20.22104         0.36131
C         29.40292        20.95671         0.39380
C         30.61237        23.07655        -0.05394
C         29.37756        22.38717         0.13429
C         30.59531        24.48166        -0.21692
C         29.37912        25.18825        -0.13814
C         30.61391        27.41837        -0.50191
C         29.38107        26.66925        -0.14386
C         30.59613        28.86479        -0.21898
C         29.39138        29.58160        -0.29732
C         30.74467        31.71642        -0.37021
C         29.41150        30.99328        -0.42603
C         30.52546        33.12891         0.17670
C         29.48885        33.87366        -0.72663
C         30.75759        36.05040        -0.42121
C         29.46735        35.30122        -0.28004
C         30.71155        37.50905        -0.06136
C         29.49701        38.19725         0.01573
C         30.70877        40.31717         0.10768
C         29.47897        39.60781         0.14099
C         30.69717        41.74281         0.35970
C         29.46748        42.39660         0.62964
C         30.72022        44.57473         0.59281
C         29.51324        43.82938         1.11275
C         30.58864        45.98168         0.09110
C         29.44367        46.73905         0.72583
C         30.65375        48.92025         0.00776
C         29.42396        48.20674         0.44869
C         30.60456        50.34113         0.01047
C         29.42047        51.07768         0.20633
C         29.40634        52.48404         0.28543
C         31.81882        16.64497         0.35861
C         33.06046        18.76231         0.48383
C         31.85309        18.06578         0.43217
C         33.05146        20.25104         0.69659
C         31.87981        20.86172        -0.07722
C         33.10130        23.03109        -0.02701
C         31.87829        22.36876        -0.02496
C         33.14851        24.46837        -0.11678
C         31.89588        25.12788        -0.66456
C         33.08914        27.34661         0.01165
C         31.89922        26.65537        -0.57724
C         33.15755        28.83496        -0.02316
C         31.87636        29.58425        -0.12207
C         33.11353        31.69238         0.46919
C         31.77759        30.96187         0.49004
C         33.11614        33.10449         0.43455
C         31.84118        33.86394         0.43850
C         33.20953        36.03783         0.24871
C         31.90187        35.35044         0.28545
C         33.22492        37.48168         0.07183
C         31.94872        38.20236        -0.06862
C         33.18861        40.35122        -0.29511
C         31.92756        39.61113        -0.07958
C         33.18070        41.81152         0.02578
C         31.91476        42.46592         0.40253
C         33.16515        44.63193         0.15624
C         31.91471        43.89958         0.44020
C         33.08166        46.06570        -0.01611
C         31.88640        46.76023         0.02621
C         31.83475        48.18449        -0.11635
C         34.35234        20.94692         0.38708
C         35.60044        23.04050         0.05223
C         34.37051        22.30657         0.12855
C         35.62162        24.44567         0.02501
C         34.34847        25.14268        -0.00117
C         35.61730        27.38122         0.22493
C         34.35978        26.60034         0.23828
C         35.61625        28.76309         0.36217
C         34.32314        29.48273         0.72310
C         35.55435        31.66727         0.38484
C         34.32478        30.97753         0.47974
C         35.54901        33.08191         0.37882
C         34.34040        33.81980         0.40727
C         35.63711        35.99559         0.56043
C         34.36028        35.28360         0.37361
C         35.66056        37.50775         0.52009
C         34.41581        38.18454         0.12944
C         35.73129        40.35894         0.01478
C         34.50149        39.58109        -0.43376
C         35.69710        41.75833         0.14347
C         34.43775        42.50432         0.49482
C         34.36909        43.96912         0.12777
C         36.81450        25.21393        -0.05118
C         38.02059        27.37245        -0.22578
C         36.84092        26.63998        -0.02775
C         38.05873        28.80353        -0.13359
C         36.82969        29.52409         0.21494
C         38.00650        31.66335        -0.09543
C         36.80941        30.92763         0.25830
C         37.96501        33.01457        -0.32609
C         36.84172        33.78099         0.23848
C         37.97541        35.94838        -0.52882
C         36.91953        35.26827         0.28146
C         37.72810        37.41233        -0.88667
C         37.03438        38.15999         0.29504
C         36.93263        39.65358         0.12710
C         39.23169        29.49764        -0.38600
C         40.45289        31.73475        -0.69733
C         39.33865        30.95336        -0.03852
C         40.34384        33.01821        -1.07165
C         39.00845        33.71708        -1.16087
C         38.99916        35.23286        -1.04859
O         19.83975        53.00225         2.65024
O         27.18520        48.26386        -0.72667
O         31.30482        27.19442        -1.79579
O         16.43472        35.84838         0.83040
O         16.67160        30.36480        -1.94975
O         26.77318        21.39522        -0.90283
O         31.64479        34.76880         1.60034
O         28.05903        36.66098         1.27979
O         14.03223        27.00777         1.20854
O         18.64706        45.60286        -1.70587
O         24.47470        30.43842        -2.40502
O         17.39642        24.72697        -2.36456
O         32.79115        29.45121        -1.27613
O         19.70529        21.45964        -1.76423
O         24.15887        42.87842         2.24732
O         12.88973        37.67634         1.38290
O         21.75630        42.17383        -1.55561
O         26.84982        38.27941        -1.78751
O         11.91253        26.01408        -1.51851
O         24.31892        52.45822        -0.69502
O         27.28720        51.68121         2.09482
O         18.47410        11.94247         1.84461
O         37.36222        34.50886         1.45337
O         16.39694        44.25123        -2.02658
O         23.97327        35.34925         1.50178
O         22.86112        23.92851         1.48208
O         24.00603        55.17731         2.35950
O         22.37338        59.63387         0.95280
O         29.69276        47.67191         1.81006
O         25.73467        45.27003         2.61783
O         33.12982        41.36318        -1.37657
O         28.17233        19.61192         2.08584
O         33.40205        26.87879         1.36748
O         35.61733        36.80106         1.79737
O         28.87274        27.19470         1.14139
O         18.11701        27.47298        -2.79963
H         18.85017        28.03716        -3.12633
O         29.74569        43.72081         2.57207
H         28.93556        43.34029         2.97473
O         26.11293        28.37468        -2.56900
H         25.84579        29.14633        -3.11858
O         20.73938        45.90241         2.06310
H         19.92079        45.43919         2.33594
O         25.96041        48.81572         2.75290
H         25.23200        49.28687         3.21022
O         20.40541        19.01134         2.13344
H         20.39107        18.11715         2.53632
O         36.85558        37.40637        -2.02147
H         36.31534        38.23455        -2.04248
O         19.92440        25.04088        -2.68707
H         19.13625        25.32718        -3.20601
O         21.90851        50.85511         3.08462
H         20.95798        50.92075         3.35467
O         27.07339        12.78146         2.16736
H         27.02297        11.95143         2.68615
O         26.79188        13.41686        -1.41717
H         26.68346        14.24470        -1.93049
O         10.78832        37.63589        -1.57511
H          9.94395        37.23990        -1.87744
O         29.86163        33.82515        -2.13572
H         29.12087        34.24071        -2.63211
O         19.04147        35.43973         1.47303
H         19.81447        35.25335         2.04568
O         30.53685        11.72927         0.42056
H         30.51322        11.82663         1.39436
O         37.87044        37.93390         1.44689
H         37.33635        37.40563         2.09062
O         21.64998        56.09294         2.48084
H         22.50257        56.02959         2.97859
O         12.72074        32.96370        -2.33851
H         13.43220        32.51113        -2.84354
O         20.34141        23.11994         1.37783
H         21.13580        23.50957         1.82514
O         17.81858        14.97659         2.18792
H         17.79340        14.16765         2.74248
O         32.78668        20.48554         2.11941
H         33.50863        20.07062         2.63588
O         16.15351        28.84193         1.33719
H         15.44277        28.32352         1.78458
O         25.68085        33.37352        -2.35600
H         25.01547        32.77078        -2.75144
O         31.16220        36.02773        -1.83247
H         30.47521        36.49616        -2.35262
O         15.97316        31.69381         1.35879
H         15.33178        32.30630         1.77506
O         24.49742        39.64961        -1.54335
H         25.33658        39.18184        -1.85864
O         23.46593        40.07775         1.95282
H         23.44343        40.95483         2.40051
O         38.58023        33.50243        -2.55703
H         37.80741        34.08118        -2.73065
O         29.86650        32.99206         1.45850
H         30.15332        33.76894         2.00173
O         26.74105        33.72045         1.11978
H         27.49797        34.15530         1.56829
O         18.43524        41.75355        -2.37567
H         18.30616        42.68094        -2.67366
O          8.78809        35.94909         2.54892
H          8.83491        34.99681         2.78033
O         18.39818        15.32031        -1.40806
H         18.35603        16.08078        -2.02495
O         18.65083        35.72851        -2.14647
H         17.93961        36.13408        -2.68683
O         15.44724        22.81547        -2.36030
H         16.13508        23.37600        -2.79913
O         34.11297        29.33324         2.14664
H         33.90610        28.38222         2.31887
O         31.33900        31.75289        -1.67623
H         30.78905        32.32441        -2.26371
O         22.12325        55.84845        -1.12978
H         22.16247        56.49755        -1.86252
O         22.91572        28.43287        -2.74834
H         23.18920        29.24078        -3.24033
O         39.67525        30.96664         1.40138
H         39.52416        31.87938         1.73017
O          9.00429        29.40384        -1.44654
H          9.67019        29.76307        -2.06935
O         22.11882        46.84194        -1.18134
H         22.89089        47.39367        -1.42591
O         21.69236        38.09091         1.98001
H         22.37766        38.67574         2.39089
O         31.98688        24.78682        -2.08732
H         31.55846        25.52480        -2.58390
O         34.35699        42.43303         1.96447
H         35.09022        42.96797         2.33507
O         22.21503        22.39053        -1.73856
H         21.43774        21.98750        -2.19814
O         19.12383        50.57116         2.88621
H         18.69593        51.34980         3.30511
O         32.07973        20.50003        -1.47602
H         31.46263        21.03310        -2.01998
O         14.92222        34.00440        -2.47739
H         14.25533        34.58736        -2.90081
O         27.08544        35.58527        -2.05646
H         26.94740        36.58082        -2.18098
O         12.19812        46.71768        -0.04498
H         12.34579        46.70368         0.92242
O         14.35737        17.26691        -1.61163
O         34.72060        39.37095        -1.87085
H         34.37104        40.17794        -2.31948
O         14.66282        21.07588         1.70211
H         14.64054        20.17366         2.08612
O         31.31537        30.77440         1.83363
H         30.79774        31.57411         2.09899
O         15.65404        37.48806        -2.36142
H         15.65995        38.41754        -2.67585
O          8.97783        29.13036         2.20392
H          8.32636        28.73728         2.82130
O         30.14067        45.82461        -1.30564
H         30.84839        45.35657        -1.79835
O         27.76153        50.63821        -1.35923
H         27.21255        49.88186        -1.67440
O         25.60103        20.41026         2.45051
H         26.45538        20.03075         2.77345
O         14.93917        42.68393         1.63164
H         14.07988        42.91744         2.04443
O         26.95462        25.46735         1.90850
H         27.70856        26.08446         2.08183
H          4.99656        31.30649         0.70977
H          5.04233        33.76881         0.77913
H          7.47814        26.91101         0.88501
H          6.22128        29.15864         0.89938
H          6.31657        35.86380         0.98338
H          7.62305        38.06266         1.11448
H          9.85911        22.58421         0.49336
H          8.65229        24.76227         0.58752
H          8.79244        40.20894         0.65519
H         10.00378        42.33870         0.22164
H         12.22471        18.31750        -0.25220
H         11.02964        20.44196         0.25437
H         11.23013        44.46030         0.00936
H         13.10966        46.13101        -1.78704
H         14.79167        13.94431        -0.17443
H         13.50187        16.03892        -0.06324
H         13.61829        48.72040        -0.15298
H         14.83954        50.85855         0.20331
H         17.51017         9.62704        -0.40037
H         15.91042        11.93862        -0.31046
H         16.07146        52.95268         0.36651
H         17.32336        54.99903         0.19311
H         19.72641         5.45998         0.85997
H         18.51914         7.58478         0.51680
H         18.50779        57.10441        -0.03801
H         19.69645        59.12656        -0.72100
H         23.13904         2.09672         1.17957
H         20.97553         3.31918         1.05354
H         23.22721        62.30228        -1.92329
H         21.09919        61.05765        -1.79928
H         25.29868         3.33122         1.16723
H         26.54803         5.47109         1.04360
H         26.61974        59.31432        -0.38001
H         25.34180        61.34227        -1.09023
H         27.78854         7.60101         0.79420
H         28.99019         9.68705         0.22833
H         29.08306        55.18499         0.11761
H         27.83986        57.27468         0.13286
H         29.41598        12.19987        -1.23336
H         31.50938        13.95194         0.14224
H         31.55334        50.89322        -0.08533
H         30.35833        53.02953         0.18524
H         32.76766        16.09063         0.30297
H         34.01302        18.20949         0.47612
H         34.02280        46.62370        -0.14190
H         32.77999        48.71930        -0.29953
H         35.29865        20.41644         0.58180
H         36.54951        22.48416         0.08318
H         36.64887        42.26962         0.36757
H         35.30125        44.53032        -0.04196
H         37.77270        24.68122        -0.15044
H         38.95790        26.83709        -0.44080
H         38.70261        37.91561        -1.14151
H         37.84942        40.21925         0.35734
H         40.13723        28.94932        -0.68819
H         41.44206        31.24938        -0.71589
H         41.22195        33.55098        -1.46975
H         39.74412        35.75462        -1.67244
