         234
 CSIRO Nanostructure Databank - Neutral Graphene Oxide Data Set
C          1.25159         2.06055         0.95006
C          1.19069         3.42531         0.66908
C          2.45560         1.34186         0.94475
C          2.34910         4.16712         0.30980
C          1.13508         6.31526        -0.05957
C          1.10491         7.67402        -0.18795
C          2.34615         5.55941         0.09388
C          2.30503         8.50308         0.03256
C          1.11721        10.76051        -0.66428
C          1.16510        12.09612        -0.79505
C          2.28177        10.01288        -0.11246
C          2.33967        12.88574        -0.24391
C          1.27752        15.18093        -0.55262
C          1.29640        16.52983        -0.28268
C          2.42114        14.32056        -0.75489
C          2.47473        17.35900        -0.13789
C          2.49708        18.48044         0.75358
C          3.67252         1.97834         0.62669
C          3.61026         3.39628         0.20515
C          4.91147         1.31064         0.62565
C          4.92735         4.17123         0.22228
C          3.63891         6.29992        -0.19512
C          3.61182         7.79276         0.09058
C          4.85024         5.60462         0.34529
C          4.77680         8.49418         0.21042
C          3.58328        10.72089        -0.27240
C          3.62267        12.08330        -0.43118
C          4.81734         9.91156        -0.25106
C          4.88881        12.77084        -0.63558
C          3.62156        14.82362        -1.21481
C          3.67434        17.04148        -0.79069
C          4.89232        14.15857        -1.06343
C          4.91142        17.62598        -0.41849
C          3.67034        19.13178         1.06744
C          4.92905        18.67318         0.55878
C          6.15513         1.99854         0.55013
C          6.12600         3.48174         0.84147
C          7.37393         1.35169         0.41482
C          7.39644         4.23556         0.51702
C          6.05980         6.32276         0.74816
C          6.04415         7.82588         0.63378
C          7.35671         5.61049         0.58601
C          7.34694         8.60259         0.66525
C          6.12305        10.63866        -0.36839
C          6.09081        12.10270        -0.54655
C          7.34086        10.03768         0.26466
C          7.36411        12.78250        -0.85602
C          6.10750        14.81996        -1.24238
C          6.15146        17.04581        -0.81439
C          7.38648        14.25924        -0.91664
C          7.34445        17.31600        -0.16211
C          6.18033        19.18831         0.95838
C          7.38998        18.53734         0.61546
C          8.62271         2.06421         0.32012
C          8.62179         3.50255         0.30811
C          9.83980         1.37508         0.20357
C          9.83469         4.19449         0.09652
C          8.55891         6.42071         0.28748
C          8.68609         7.84066         0.84096
C          9.82391         5.67311        -0.00691
C          9.92886         8.55641         0.25963
C          8.64445        10.76911         0.12001
C          8.65542        12.08039        -0.58217
C          9.94633        10.02364         0.17018
C          9.88421        12.87657        -0.46025
C          8.55481        14.98451        -0.63528
C          8.51845        16.39947        -0.13538
C          9.82716        14.27936        -0.48033
C          9.84421        17.05697         0.24987
C          8.65153        19.13729         0.88414
C          9.86059        18.51045         0.53380
C         11.07374         2.05842         0.03281
C         11.04015         3.48593        -0.06098
C         12.32312         1.36775         0.04328
C         12.26611         4.20832        -0.42002
C         11.11287         6.41213         0.16027
C         11.09987         7.88421        -0.01798
C         12.36854         5.66128        -0.10570
C         12.33618         8.54525        -0.43215
C         11.14632        10.72576        -0.31409
C         11.11669        12.14782        -0.40975
C         12.34275        10.00138        -0.52345
C         12.33309        12.86827        -0.55555
C         11.08046        14.99238        -0.36630
C         11.10852        16.38652        -0.11363
C         12.31896        14.29225        -0.50824
C         12.32345        17.09106        -0.06680
C         11.09516        19.17272         0.55503
C         12.31942        18.50105         0.27850
C         13.56296         2.03018        -0.05121
C         13.58406         3.45312        -0.43787
C         14.79327         1.42580         0.25648
C         14.81351         4.24529        -0.30946
C         13.58712         6.38770        -0.51418
C         13.51585         7.80789        -0.68926
C         14.77755         5.64179        -0.59048
C         14.73956         8.51448        -1.16444
C         13.53613        10.73488        -0.75098
C         13.55821        12.15479        -0.70620
C         14.76634        10.01979        -1.10820
C         14.78353        12.87718        -0.86469
C         13.55481        15.00596        -0.55181
C         13.56637        16.41278        -0.32063
C         14.78958        14.31272        -0.79283
C         14.80541        17.10966        -0.24769
C         13.53887        19.16986         0.38327
C         14.78323        18.50493         0.15560
C         16.01374         2.16090         0.33768
C         16.02391         3.59550         0.03674
C         17.19814         1.49147         0.67300
C         17.24255         4.32090         0.00864
C         16.06015         6.30913        -0.90006
C         16.06488         7.79207        -1.16895
C         17.31213         5.67421        -0.45326
C         17.31629         8.54483        -0.94801
C         16.04146        10.74875        -1.04065
C         16.00469        12.12802        -0.99459
C         17.32582        10.00112        -1.37419
C         17.25802        12.86679        -1.25809
C         15.99432        15.06875        -0.90444
C         16.04093        16.45231        -0.56015
C         17.23373        14.36463        -1.28585
C         17.30216        17.16592        -0.45278
C         15.96510        19.19065         0.33528
C         17.31123        18.58088         0.14340
C         18.42334         2.20318         0.97031
C         18.44227         3.70476         0.56076
C         19.73693         1.53733         1.07513
C         19.75425         4.26055         0.17138
C         18.49322         6.42846        -0.44838
C         18.50221         7.86263        -0.66856
C         19.77875         5.72152        -0.29879
C         19.76058         8.58787        -0.52035
C         18.56130        10.72059        -0.90936
C         18.51668        12.21863        -0.72234
C         19.75026        10.03250        -0.61309
C         19.84270        12.83077        -1.27124
C         18.54470        15.11254        -1.23328
C         18.53405        16.49819        -0.67274
C         19.84746        14.36745        -1.35127
C         19.79164        16.94691        -0.19474
C         17.97782        18.45842         1.53393
C         19.31281        18.20122         1.57658
C         20.90230         2.24080         1.07154
C         20.97328         3.64240         0.71365
C         22.14178         4.37824         0.67683
C         21.01959         6.46308        -0.05456
C         20.96977         7.91734        -0.18258
C         22.15030         5.76191         0.33533
C         22.13375         8.67501         0.05816
C         20.97355        10.76452        -0.37797
C         21.01081        12.28281        -0.42264
C         22.12637        10.06922        -0.03337
C         22.31608        12.89675        -0.86774
C         21.18898        15.13129        -1.10552
C         20.92643        16.09958         0.03508
C         22.39061        14.22383        -1.01831
C         21.67307        16.23854         1.19505
C         20.18602        17.73726         2.62905
C         21.29243        16.94998         2.38567
O          6.11746        16.08585        -1.83528
O         14.57772         9.27267        -2.41122
O          3.63376        16.09591        -1.83279
O          9.39525        10.75211         1.35750
O         19.87890         4.59070        -1.23983
O          9.01871         6.24700        -1.09428
O         18.30295         3.30823         1.94806
O          9.05655        16.33143         1.24779
O         17.20104        13.54885        -2.52953
O          5.59489         9.91762        -1.53100
O         11.92954         5.94356         1.28167
O          4.38626         3.62836        -1.03274
O          7.15527         9.66166         1.66791
O         12.85387         3.78802        -1.67663
O         16.13943         6.82441        -2.27887
O          8.09981        12.06124        -1.93658
O         19.97705        18.23378         0.31660
O          2.10446         9.41369         1.21256
O          5.88701         7.17117         1.94856
O         19.22267        14.92836        -2.54186
O          3.79777         6.24791        -1.67304
H          3.92279         5.29157        -1.89849
O          8.90441         7.70117         2.25526
H          8.63367         8.55130         2.67195
O         18.33623        12.46839         0.70349
H         19.18972        12.29620         1.17236
O          5.90788         3.61131         2.27973
H          6.70993         3.28882         2.74146
O         18.01392        19.50536        -0.70396
H         18.97713        19.29665        -0.65714
O         17.36600         9.95749        -2.84440
H         16.51472         9.55082        -3.13702
O         20.86109        12.74887         0.96381
H         21.63119        12.41293         1.46949
O         20.03270        12.32655        -2.59678
H         19.38248        12.78216        -3.17808
O         21.46827        15.96336        -2.25361
H         20.66300        15.94450        -2.82801
O          2.12805        12.98881         1.19633
H          2.02697        12.07947         1.55209
H          0.32405         1.53603         1.21970
H          0.22133         3.93701         0.74175
H          2.45963         0.27932         1.22584
H          0.18228         5.76786        -0.11593
H          0.13787         8.18302        -0.30552
H          0.22841        10.19865        -0.98867
H          0.30606        12.63885        -1.21760
H          0.30531        14.67507        -0.43506
H          0.34173        16.98920         0.02082
H          1.55467        18.79873         1.22287
H          4.91988         0.21289         0.71307
H          3.65827        19.97201         1.77609
H          7.39441         0.25555         0.31395
H          6.22070        20.08043         1.60013
H          9.83863         0.27547         0.23830
H          8.67432        20.16311         1.28103
H         12.31750         0.28707         0.25078
H         11.12806        20.24144         0.81395
H         14.81091         0.35906         0.52643
H         13.55584        20.23061         0.67315
H         17.21380         0.39122         0.66516
H         15.94070        20.24781         0.63826
H         19.75238         0.44822         1.22965
H         17.35392        18.41806         2.43662
H         21.85251         1.71594         1.25327
H         23.08471         3.91657         1.00400
H         23.10484         6.29098         0.46122
H         23.07384         8.17689         0.32567
H         23.06077        10.61231         0.16877
H         23.22261        12.27913        -0.94884
H         23.35043        14.69438        -1.27944
H         22.55965        15.59148         1.29571
H         19.95599        18.01731         3.66765
H         21.92453        16.72904         3.26116
