         252
 CSIRO Nanostructure Databank - Neutral Graphene Oxide Data Set
C         30.40681        31.91219         0.83977
C         30.51162        33.08648         1.21798
C         30.57607        36.13996         1.48435
C         30.49500        37.27887         1.02302
C         30.41872        40.29643         0.34282
C         30.44764        41.47520         0.81177
C         32.66302        29.10691         0.11491
C         31.55346        29.65371         0.23200
C         32.82857        31.72352         0.59721
C         31.45445        31.15793         0.06693
C         32.90894        33.05909         1.23109
C         31.68350        33.83518         1.67140
C         32.89233        35.97361         0.92018
C         31.78354        35.34430         1.83850
C         32.84969        37.26575         0.40413
C         31.52557        37.96798         0.23271
C         32.78479        40.12732        -0.40778
C         31.49067        39.41942        -0.12907
C         32.79588        41.51006        -0.70691
C         31.00261        42.60710         0.18890
C         32.72877        44.29889         0.04627
C         31.76065        43.71630         0.60938
C         35.39898        27.41166         0.14489
C         35.20073        28.83466         0.12098
C         34.01470        29.55312         0.22136
C         35.32299        31.60587         0.59758
C         34.03917        30.98626         0.47405
C         35.45747        33.04804         1.03317
C         34.15227        33.82871         1.00452
C         35.36664        35.95808         0.64795
C         34.11242        35.19101         0.83709
C         35.29474        37.34758         0.15070
C         34.05596        37.98909         0.01143
C         35.23253        40.14883        -0.52767
C         34.02151        39.42417        -0.32672
C         35.22688        41.57318        -0.61579
C         33.98802        42.26960        -0.64295
C         35.26687        44.50203        -0.52383
C         33.95884        43.76920        -0.55520
C         35.54926        45.82034         0.06893
C         37.69095        27.33214         0.77174
C         36.36795        26.67057         0.35379
C         37.71379        28.66303        -0.07125
C         36.46842        29.49536         0.15748
C         37.82174        31.58757         0.24083
C         36.52175        30.89239         0.34695
C         37.85330        33.00334         0.19573
C         36.52352        33.72555         0.15539
C         37.85340        35.88503         0.02719
C         36.64118        35.18889         0.48642
C         37.74742        37.31251        -0.11054
C         36.52980        37.98740        -0.16796
C         37.78160        40.14293        -0.48872
C         36.51327        39.36725        -0.78178
C         37.72825        41.57357        -0.86953
C         36.47608        42.33688        -0.69184
C         37.83427        44.43467        -0.51056
C         36.55120        43.71557        -0.54437
C         38.01668        45.84129         0.15666
C         36.63055        46.39744         0.17424
C         40.27369        24.72714         1.37460
C         39.16696        25.35278         1.47784
C         40.23552        27.22599         0.24579
C         38.93534        26.50665         0.57711
C         40.19705        28.70418         0.04416
C         39.02213        29.41610         0.10088
C         40.27548        31.57661        -0.05649
C         39.03019        30.86701         0.08378
C         40.29536        33.00419        -0.09086
C         39.05239        33.72337         0.00388
C         40.28696        35.87640        -0.61568
C         39.02803        35.16961        -0.14983
C         40.31158        37.34199        -0.17208
C         39.00634        38.06990        -0.03243
C         40.27434        40.23601         0.04940
C         38.96236        39.52753        -0.22839
C         40.23035        41.71728        -0.36162
C         39.01014        42.31594        -1.00361
C         40.22899        44.50690        -1.26261
C         38.97847        43.79579        -0.90712
C         40.21115        45.99971        -1.27130
C         39.09288        46.69308        -0.50996
C         40.26589        48.59725         0.90830
C         39.57752        47.87740         0.18925
C         42.85126        24.63001         1.04528
C         41.57301        25.16400         1.14398
C         42.72905        27.08893        -0.22726
C         41.57952        26.70936         0.77743
C         42.75406        28.61737        -0.45961
C         41.45725        29.39620        -0.31305
C         42.72102        31.53631        -0.45924
C         41.50086        30.86621        -0.22840
C         42.72291        32.97491        -0.50421
C         41.54092        33.68348        -0.30125
C         42.80399        35.88283        -0.69253
C         41.57013        35.18938        -0.12093
C         42.73106        37.35616        -0.91483
C         41.52075        38.13961        -0.52893
C         42.70452        40.33563        -0.94270
C         41.49459        39.50324        -0.52891
C         42.78164        41.68999        -0.18919
C         41.50522        42.48016        -0.40940
C         42.79437        44.61430        -0.86366
C         41.55870        43.81418        -1.09664
C         42.76282        45.97717        -1.00091
C         41.53776        46.70647        -1.41614
C         42.64044        48.52888         0.97875
C         41.45469        49.17045         1.42639
C         43.92290        25.26670         0.78367
C         45.26129        27.26902         0.07519
C         44.09395        26.55163         0.25143
C         45.29206        28.69124        -0.28057
C         44.01463        29.40198        -0.38878
C         45.25483        31.53762        -0.47990
C         43.96665        30.78148        -0.52850
C         45.25887        33.02591        -0.56940
C         43.96651        33.68934        -1.01124
C         45.29482        35.88401        -1.01610
C         43.97611        35.20142        -0.84977
C         45.33046        37.40028        -0.97221
C         44.02224        38.12988        -1.03098
C         45.13019        40.21646        -0.31747
C         44.00237        39.58128        -0.73228
C         45.25165        41.69690        -0.46811
C         44.01505        42.48915        -0.55610
C         45.25431        44.65200        -0.42154
C         44.03469        43.88045        -0.59935
C         45.18116        46.04237        -0.31075
C         43.95724        46.85578        -0.63569
C         43.41103        47.70251         0.49223
C         47.66910        27.21128        -0.27900
C         46.59764        26.77731         0.17334
C         47.77963        28.59275        -0.77310
C         46.49600        29.33343        -0.55421
C         47.82815        31.54232        -0.95114
C         46.51601        30.79053        -0.81502
C         47.86231        33.07593        -0.96418
C         46.53407        33.77349        -0.75116
C         47.78947        35.88171        -0.39590
C         46.54987        35.14465        -0.67678
C         47.83713        37.40441        -0.47352
C         46.47656        38.04869        -0.35451
C         47.57586        40.17342         0.50317
C         46.34596        39.44558         0.05303
C         47.60884        41.68731         0.52849
C         46.55258        42.41726        -0.25640
C         47.74356        44.61910         0.41250
C         46.63418        43.95017        -0.44274
C         47.44671        45.99669         0.42759
C         46.43214        46.63615         0.05829
C         50.36617        28.75244        -0.50598
C         49.08591        29.32718        -0.91463
C         50.26996        31.48015        -0.35885
C         49.13028        30.82555        -0.73141
C         50.19747        32.91618         0.07071
C         48.93300        33.69933        -0.09362
C         50.09705        35.86078         0.53913
C         48.93320        35.19471        -0.04476
C         50.03071        37.25763         0.87512
C         48.89009        38.05322         0.43310
C         49.90655        40.14460         1.41103
C         48.84435        39.40770         0.66722
C         50.14061        41.60957         0.98868
C         48.83575        42.41842         0.96159
C         50.10830        44.39019         1.32537
C         48.87995        43.93146         0.80744
C         51.33242        29.31314         0.02467
C         52.44668        31.53851         0.79111
C         51.69111        30.74634        -0.23771
C         52.39077        32.75824         0.94818
C         51.48473        33.72742         0.23560
C         52.23391        35.81128         1.51115
C         51.24864        35.07639         0.83826
C         52.14199        37.01846         1.86400
C         51.07964        37.89435         1.61187
C         52.28102        40.14071         2.07985
C         51.06327        39.31858         1.95985
C         52.21732        41.39368         2.26473
C         51.31207        42.33793         1.76848
C         51.07215        43.70058         1.79092
O         49.24668        33.07333         1.18089
O         36.26162        35.68031         1.81168
O         40.65081        42.56948         0.77181
O         47.08356        31.10685        -2.13643
O         39.10220        46.67663        -1.94219
O         48.40688        28.80981        -2.06135
O         45.28285        32.37064         0.74791
O         45.56705        36.65673        -2.24150
O         39.52941        26.41905        -0.74860
O         47.78526        42.11462         1.92325
O         43.25789        37.77375        -2.22756
O         40.94009        43.90163        -2.40268
O         42.56526        40.75009        -2.37041
O         41.58994        47.86928        -1.80997
O         31.59799        42.15891        -1.07324
O         46.26584        41.84420        -1.56682
O         39.78974        37.61229         1.14494
O         38.41784        41.73911        -2.19343
O         46.62506        39.68306         1.52619
O         31.17549        38.37077        -1.09818
O         49.97840        39.79374         2.81295
O         32.42876        33.10711         2.67584
O         41.96759        28.93990        -1.64839
O         34.48954        44.46232        -1.72638
O         48.28388        37.70590        -1.84345
H         47.61614        37.30653        -2.44966
O         36.06890        33.70202        -1.22605
H         36.03622        32.76787        -1.52495
O         41.62015        35.42496         1.30828
H         42.32734        34.87084         1.69924
O         43.97020        33.48547        -2.45705
H         43.24932        34.02140        -2.85136
O         42.47151        26.44024        -1.46921
H         42.05781        27.09699        -2.07717
O         47.12937        44.17288        -1.78727
H         46.70614        43.50128        -2.37224
O         41.44362        50.21129         2.25816
H         42.35144        50.47744         2.50523
O         52.33462        30.87227        -1.47057
H         53.22424        30.46803        -1.42261
O         50.56425        41.51248        -0.38527
H         50.79871        42.40619        -0.71421
O         36.53712        39.12215        -2.22933
H         36.71670        39.97725        -2.67852
O         35.92280        33.02939         2.40071
H         36.04180        33.96848         2.68189
O         31.35544        31.46329        -1.30216
H         30.51939        31.09622        -1.65579
O         41.80418        27.43170         1.99619
H         42.58334        27.04895         2.45288
O         48.28017        33.43118        -2.31037
H         47.74962        32.88676        -2.93527
O         38.47925        45.60885         1.48344
H         37.77103        45.17633         2.00412
O         41.66739        39.83884        -3.04045
H         42.23458        39.02714        -3.16260
O         44.28027        47.74511        -1.69650
H         43.43591        48.16594        -1.99550
O         42.91552        41.36714         1.21782
H         42.76143        42.18352         1.73986
O         52.02488        33.92985        -1.07040
H         52.81626        34.50350        -1.00400
O         40.41828        40.17689         1.48205
H         41.31311        40.52965         1.70733
O         40.33083        35.83177        -2.06036
H         39.45927        36.10147        -2.41866
O         32.19026        35.63070         3.16524
H         32.43540        34.77810         3.59697
O         37.67588        28.29874        -1.47049
H         38.34085        27.58325        -1.62371
O         37.61534        27.66176         2.14058
H         37.77081        26.84595         2.66569
