         344
 CSIRO Nanostructure Databank - Neutral Graphene Oxide Data Set
C          1.29233         3.51754        -0.98585
C          0.13466         4.22632        -1.28134
C          1.22248         6.33139        -0.66842
C          0.09764         5.61674        -1.14280
C          1.20409         7.79223        -0.53992
C          0.03697         8.53478        -0.77973
C          1.22266        10.65151        -0.48761
C          0.04181         9.92535        -0.75493
C          1.24090        12.09994        -0.45922
C          0.09115        12.84986        -0.80178
C          1.22092        14.92053        -0.21984
C          0.08071        14.22569        -0.69490
C          1.17979        16.36067        -0.02755
C         -0.00060        17.03684         0.16094
C          1.14259        19.18734         0.48691
C         -0.02164        18.44126         0.37864
C          1.00417        20.63489         0.94802
C         -0.07070        21.40408         0.21937
C          1.16490        23.51420         0.42789
C         -0.04262        22.74744         0.14015
C          1.18462        24.96883         0.37054
C          0.11858        25.78872        -0.03909
C          1.25851        27.97197        -0.68774
C          0.13481        27.14074        -0.47215
C          1.30272        29.02903        -1.65707
C          3.66712         3.50078        -0.31181
C          2.45047         4.20286        -0.53512
C          3.56065         6.30959         0.29778
C          2.39811         5.61686        -0.36386
C          3.61493         7.78951         0.03026
C          2.41114         8.49948        -0.23045
C          3.62482        10.64141         0.10679
C          2.41735         9.93259        -0.21084
C          3.62840        12.05829         0.23853
C          2.41801        12.79212        -0.04475
C          3.53034        14.92269         0.75620
C          2.39185        14.20171         0.08005
C          3.66419        16.36645         0.35847
C          2.47206        17.12347        -0.16017
C          3.63109        19.19394         0.60051
C          2.41490        18.54224         0.36689
C          3.65325        20.63288         0.94005
C          2.34411        21.38713         0.98128
C          3.69171        23.47324         0.33354
C          2.35247        22.83411         0.66532
C          3.66896        24.95220         0.57349
C          2.46029        25.55321         0.71796
C          3.73055        27.79352        -0.75488
C          2.51838        27.59328        -0.12101
C          3.75884        28.86778        -1.71285
C          2.52019        29.49567        -2.09577
C          6.12232         3.50652        -0.09989
C          4.88510         4.19333        -0.09114
C          6.08063         6.33364         0.15658
C          4.87539         5.61302         0.08034
C          6.07305         7.76710         0.28204
C          4.83180         8.48208         0.20463
C          6.04772        10.60921         0.54528
C          4.83664         9.91305         0.26901
C          6.02800        12.00766         0.76897
C          4.83185        12.74009         0.62203
C          6.02579        14.88306         0.99023
C          4.84425        14.18078         0.75380
C          6.07773        16.31739         0.86035
C          4.85839        17.04218         0.56038
C          6.11493        19.18417         0.63954
C          4.87606        18.49276         0.53946
C          6.12978        20.65172         0.72364
C          4.94297        21.35215         0.83341
C          6.14817        23.57078         0.74457
C          4.87470        22.84607         1.09843
C          6.17566        24.91378         0.43580
C          4.93466        25.80321         0.48311
C          6.23230        27.36207        -1.17337
C          4.84861        26.74346        -0.77381
C          6.21649        28.82581        -1.59754
C          5.00664        29.40023        -2.06845
C          8.58350         3.52027        -0.04289
C          7.34336         4.20491        -0.00947
C          8.55276         6.36167         0.11034
C          7.33178         5.63941         0.09078
C          8.54395         7.78576         0.22356
C          7.30013         8.48552         0.35754
C          8.52911        10.62773         0.58861
C          7.29210         9.89709         0.54569
C          8.55060        12.01944         0.86255
C          7.25981        12.61771         1.39913
C          8.55885        14.88514         1.45131
C          7.25254        14.14746         1.40975
C          8.55236        16.32877         1.12697
C          7.30794        17.03098         0.89122
C          8.62621        19.18976         0.91354
C          7.31776        18.45544         0.71940
C          8.60599        20.67799         0.54803
C          7.40347        21.35143         0.71227
C          8.66778        23.55967         0.77975
C          7.40013        22.82317         1.09655
C          8.65727        24.95259         0.44196
C          7.41984        25.59224         0.21065
C          8.65056        27.72405        -0.47002
C          7.36537        27.01066        -0.22039
C          8.66925        28.97831        -1.27563
C          7.41964        29.51399        -1.71859
C         11.04381         3.52832        -0.08026
C          9.80257         4.21968        -0.03030
C         11.01849         6.37265        -0.02831
C          9.79734         5.65874         0.02039
C         11.01851         7.81453        -0.02614
C          9.76338         8.52525         0.14188
C         10.94960        10.72139         0.07857
C          9.73471         9.92793         0.28886
C         11.01724        12.10348         0.58546
C          9.79036        12.75058         0.91853
C         11.07457        14.82042         1.27181
C          9.83714        14.13949         1.24307
C         11.03035        16.31229         1.59694
C          9.77706        16.97547         1.04936
C         11.04546        18.77958         0.08599
C          9.82258        18.31215         0.56901
C         11.05518        20.94817        -0.00446
C          9.83173        21.45630         0.51562
C         11.17000        23.57809         1.03554
C          9.86292        22.85289         0.77967
C         11.13834        24.97930         0.43828
C          9.90334        25.60381         0.17273
C         11.15547        27.66557        -0.57164
C          9.88805        26.87190        -0.62842
C         11.13377        29.01808        -1.02117
C          9.88351        29.60817        -1.46171
C         13.51272         3.52970        -0.14009
C         12.25404         4.22180        -0.11150
C         13.48292         6.36143        -0.18283
C         12.25256         5.66005        -0.10312
C         13.48258         7.79874        -0.19765
C         12.23130         8.50516        -0.13022
C         13.49611        10.69750         0.06956
C         12.23196         9.97988        -0.19244
C         13.50716        11.99521         0.49257
C         12.26820        12.74891         0.74713
C         13.64329        14.80999         1.43645
C         12.29743        14.12584         1.12134
C         13.62886        16.32270         1.22678
C         12.33372        17.07776         1.26692
C         13.52812        19.12047         0.35456
C         12.32596        18.36119         0.51159
C         13.53883        20.58613        -0.20320
C         12.32364        21.43581         0.23865
C         13.59437        23.51228         0.42400
C         12.42791        22.82484         0.60905
C         13.63018        25.00219         0.69393
C         12.34853        25.66057         0.24551
C         13.58573        27.75480        -0.30918
C         12.36031        27.02753        -0.21323
C         13.57015        29.12885        -0.71093
C         12.33425        29.74138        -1.05862
C         16.01994         3.48175        -0.10831
C         14.70308         4.20972        -0.22221
C         15.92946         6.35519        -0.48764
C         14.71172         5.64739        -0.28874
C         15.92116         7.78533        -0.50257
C         14.69867         8.49112        -0.32675
C         16.01457        10.60929        -0.18530
C         14.69295         9.99096        -0.51018
C         16.08114        11.96800         0.38044
C         14.81430        12.63851         0.92987
C         16.07651        14.90579         0.57437
C         14.74722        14.15544         0.57265
C         16.04109        16.33538         0.62645
C         14.83305        17.03356         0.74040
C         16.02172        19.20317         0.51840
C         14.76599        18.46548         0.60014
C         15.91077        20.69332         0.82913
C         14.80428        21.35601         0.08128
C         16.09066        23.55478         0.26004
C         14.82169        22.83384        -0.16741
C         16.08485        24.99023         0.16911
C         14.85909        25.68951         0.15291
C         16.05895        27.79585        -0.25135
C         14.83597        27.07913        -0.10909
C         16.03190        29.20657        -0.54177
C         14.79220        29.84098        -0.78567
C         18.49576         3.58926        -0.47066
C         17.15348         4.14617        -0.90090
C         18.32020         6.36356        -1.03473
C         17.15270         5.66325        -0.76988
C         18.36141         7.80004        -0.95780
C         17.14337         8.49666        -0.71263
C         18.39714        10.66282        -0.85821
C         17.15713         9.92509        -0.53823
C         18.42690        12.15345        -0.66649
C         17.31277        12.78767         0.11425
C         18.45946        15.01461        -0.12931
C         17.26495        14.26335         0.21796
C         18.48991        16.37569         0.01684
C         17.35009        17.08220         0.70466
C         18.46691        19.32301         0.00902
C         17.22384        18.55775         0.40924
C         18.53780        20.70100         0.62731
C         17.25159        21.43824         0.79342
C         18.53664        23.60360         0.51741
C         17.27371        22.89729         0.53990
C         18.54818        25.02051         0.32259
C         17.31105        25.71406         0.14972
C         18.52231        27.85780        -0.11057
C         17.29477        27.12665        -0.05839
C         18.48880        29.26882        -0.36714
C         17.25233        29.91647        -0.59078
C         19.61834         4.25910        -0.74588
C         20.81092         6.36891        -1.37822
C         19.53918         5.57899        -1.47830
C         20.81964         7.71276        -1.21191
C         19.61163         8.49185        -1.06012
C         20.84433        10.67120        -1.04161
C         19.66840         9.92557        -0.98919
C         20.86244        12.09023        -0.90423
C         19.73330        12.83011        -0.64354
C         20.93956        14.99974        -0.15786
C         19.70381        14.33855        -0.71923
C         20.95816        16.32404         0.01190
C         19.74387        17.14009        -0.37573
C         20.92669        19.27372         0.22803
C         19.76793        18.56880         0.11879
C         20.95820        20.70998         0.35130
C         19.81087        21.45038         0.46425
C         20.97689        23.64642         0.54747
C         19.77935        22.90339         0.54875
C         20.97854        25.03220         0.45332
C         19.77773        25.74845         0.29250
C         20.95036        27.95193         0.03214
C         19.76658        27.19030         0.07830
C         20.91607        29.33427        -0.20246
C         19.71257        29.99137        -0.40660
O         18.09863        11.61301        -1.98856
O          3.01484        21.01019         2.26299
O         13.20041        17.06454         2.44991
O          7.93443        27.91745         0.78805
O         11.47116        10.55624        -1.31806
O         18.02023        20.95850         1.97268
O          7.80279        14.62464         2.69801
O         17.16207        12.08079         1.40095
O          2.43842        26.90184         1.08490
O         10.96090        19.82648        -0.84328
O         10.82587        16.41191         3.03585
H         11.69326        16.65562         3.43720
O          4.67079        23.04808         2.53110
H          3.99290        22.37607         2.81209
O         15.47868        20.71424         2.23642
H         16.30375        20.66755         2.77522
O          8.77758        19.29524         2.38450
H          8.80997        18.38314         2.75031
O         14.73487        23.04079        -1.62854
H         14.28247        22.24613        -2.00229
O         17.72316        17.05450         2.14540
H         16.96608        17.42723         2.64753
O         19.68707        14.60358        -2.17084
H         19.07349        13.95754        -2.58450
O         19.33573         5.25011        -2.90344
H         19.29660         6.09916        -3.39346
O          7.39513        22.78153         2.58200
H          6.44637        22.75208         2.87158
O          2.69063        17.25413        -1.62672
H          1.93009        17.76089        -1.98373
O         16.38043         3.43810         1.28716
H         16.37562         4.35482         1.63235
O          5.06739        26.65335         1.63022
H          5.10940        26.09073         2.43083
O          6.65170        26.66231        -2.39735
H          7.62870        26.75797        -2.49865
O         14.25496        14.25633        -0.79131
H         14.89627        13.82608        -1.39513
O          9.72741        26.43103        -2.05410
H         10.55137        25.96065        -2.30741
O         16.95387         3.82643        -2.29895
H         17.72943         4.20144        -2.78661
O         13.93420        14.60779         2.82752
H         13.50510        15.34032         3.32418
O         14.53411        10.20458        -1.96803
H         13.59244        10.03302        -2.19269
O          7.20289        12.16804         2.79108
H          7.61935        12.88691         3.32644
O          3.13002        14.96664         2.18755
H          3.89350        15.31835         2.69481
O          3.92770        23.21867        -1.08609
H          4.03595        24.10030        -1.53097
O         18.30049        19.59697        -1.42549
H         18.69051        18.82705        -1.91259
O         11.24161        23.70956         2.48376
H         10.34410        23.92713         2.81427
O          0.51159        20.56879         2.31723
H          1.30167        20.43188         2.88995
O         13.42932        20.48726        -1.66003
H         12.53526        20.10943        -1.84793
O         13.72815        25.16178         2.14827
H         13.42315        26.06466         2.37585
O          3.30048         6.19858         1.76025
H          2.44311         6.64377         1.93278
O         19.72963        17.28301        -1.83817
H         19.73221        16.36468        -2.21930
O          4.40584        25.86647        -1.84855
H          5.02517        25.99756        -2.60703
O         14.83946        12.41664         2.34658
H         15.76673        12.54953         2.64913
H          1.32570         2.42607        -1.11239
H         -0.75809         3.69461        -1.63923
H         -0.82677         6.14701        -1.40674
H         -0.90932         8.02260        -0.99870
H         -0.90203        10.45128        -0.94819
H         -0.81418        12.34209        -1.15906
H         -0.82282        14.78419        -0.97544
H         -0.95233        16.48910         0.21208
H         -0.99331        18.92412         0.54795
H         -0.97876        20.86334        -0.08438
H         -0.90904        23.28467        -0.27211
H         -0.84878        25.28517        -0.19825
H         -0.81491        27.49517        -0.90643
H          0.36678        29.43795        -2.06522
H          3.68674         2.40867        -0.44124
H          2.56022        30.32027        -2.82272
H          6.13192         2.41205        -0.21034
H          5.05068        30.35829        -2.60929
H          8.59003         2.42174        -0.10057
H          7.41247        30.51602        -2.17577
H         11.04372         2.42851        -0.10157
H          9.91994        30.58502        -1.96759
H         13.51031         2.43056        -0.08881
H         12.33086        30.78973        -1.39121
H         15.90753         2.42333        -0.44651
H         14.77753        30.90733        -1.05637
H         18.52399         2.61569         0.04100
H         17.24109        30.99618        -0.80268
H         20.60812         3.86155        -0.47412
H         21.75914         5.82538        -1.50501
H         21.78682         8.23481        -1.19155
H         21.81116        10.16953        -1.18183
H         21.83658        12.59451        -0.98437
H         21.80994        14.38156         0.10598
H         21.85124        16.81914         0.41906
H         21.89801        18.76258         0.16284
H         21.94337        21.19471         0.31282
H         21.94175        23.12545         0.60954
H         21.94285        25.55737         0.46329
H         21.92663        27.47100         0.17899
H         21.85919        29.89786        -0.23117
H         19.69354        31.07326        -0.60082
