         429
 CSIRO Nanostructure Databank - Neutral Graphene Oxide Data Set
C          1.27408         2.11929         0.64162
C          1.18559         3.45484         0.20136
C          2.49363         1.47399         0.67377
C          2.32149         4.15764        -0.21008
C          1.02848         6.38523        -0.42183
C          1.05086         7.73699        -0.57307
C          2.21232         5.56097        -0.69562
C          2.28832         8.48548        -0.68077
C          1.09618        10.68311        -0.86468
C          1.06526        12.04939        -0.84766
C          2.29442         9.94000        -0.62064
C          2.27198        12.81921        -0.55371
C          1.34619        15.01089        -1.76430
C          1.56095        16.20466        -2.33902
C          2.40692        14.29360        -1.02514
C          2.90906        16.87733        -2.49337
C          2.84302        18.36523        -2.29527
C          3.67843         2.15394         0.26514
C          3.59268         3.51704        -0.17244
C          4.92800         1.50480         0.30975
C          4.81124         4.19493        -0.54144
C          3.53553         6.34385        -0.89682
C          3.49032         7.78740        -0.68560
C          4.82008         5.62644        -0.75141
C          4.76078         8.42735        -0.19765
C          3.51413        10.64759        -0.38431
C          3.52197        12.07485        -0.33243
C          4.74961         9.93201        -0.24903
C          4.70854        12.79884        -0.01391
C          3.79469        14.82377        -1.10686
C          4.03522        16.22470        -1.66942
C          4.78861        14.17956        -0.23058
C          5.13423        17.04329        -1.10311
C          3.95667        19.05561        -1.99801
C          5.19702        18.43940        -1.52272
C          6.11620         2.14016        -0.13758
C          6.02804         3.50307        -0.58651
C          7.35162         1.46823        -0.04442
C          7.20454         4.21622        -1.22818
C          6.02301         6.33637        -0.76243
C          5.99575         7.84055        -0.87758
C          7.27734         5.66840        -0.81695
C          7.25709         8.48962        -0.33867
C          5.96686        10.59016        -0.04818
C          5.93125        12.02736         0.33994
C          7.20147         9.87443        -0.03780
C          7.21775        12.76689         0.56380
C          5.96336        14.97512         0.12694
C          6.10734        16.38307        -0.30713
C          7.23612        14.26169         0.60049
C          7.25141        17.01874         0.23848
C          6.33998        19.23032        -1.57792
C          7.51938        18.95242        -0.79504
C          8.58650         2.04642        -0.55669
C          8.52376         3.45710        -1.13543
C          9.89823         1.48936        -0.22324
C          9.79274         4.26672        -1.17037
C          8.49573         6.37073        -0.65038
C          8.45529         7.77318        -0.30603
C          9.76597         5.68596        -0.74875
C          9.70175         8.40174         0.27947
C          8.48524        10.61276        -0.01741
C          8.49416        12.10566         0.15247
C          9.74568         9.90832         0.20798
C          9.75473        12.77074         0.52539
C          8.53064        14.95465         0.48236
C          8.53283        16.37607         0.40019
C          9.74431        14.23190         0.55802
C          9.77964        17.08313         0.31451
C          8.85622        19.06625        -0.99524
C          9.81245        18.60997         0.11466
C         11.08988         2.08251        -0.66228
C         11.09511         3.51702        -1.09016
C         12.33061         1.44878        -0.56100
C         12.31105         4.26498        -0.69051
C         10.98302         6.34189        -0.50740
C         10.96406         7.80827        -0.30282
C         12.24714         5.67077        -0.47717
C         12.24874         8.55080        -0.02872
C         10.92513        10.60645         0.48621
C         10.90692        12.04299         0.70315
C         12.19935         9.92340         0.51389
C         12.06691        12.79299         1.35166
C         10.96394        14.92762         0.53894
C         10.98691        16.34433         0.40079
C         12.24817        14.11210         0.56052
C         12.28777        17.01967         0.35430
C         11.18156        19.14848        -0.17479
C         12.33754        18.43742         0.03475
C         13.52366         2.12871        -1.16891
C         13.51137         3.54559        -0.63243
C         14.82783         1.41905        -0.95552
C         14.71507         4.17026        -0.19866
C         13.44515         6.37953        -0.08598
C         13.47387         7.75555         0.14688
C         14.63147         5.57890         0.27131
C         14.68309         8.46567         0.49768
C         13.40002        10.57771         0.84613
C         13.38877        11.93744         1.55246
C         14.63390         9.87920         0.76835
C         14.67512        12.71811         1.27796
C         13.40067        14.93706         1.09175
C         13.46400        16.35381         0.66847
C         14.67416        14.19371         1.39807
C         14.73513        17.03537         0.74297
C         13.60933        19.09755         0.00699
C         14.77534        18.45277         0.39894
C         15.99949         2.10637        -0.69870
C         15.93262         3.50849        -0.32061
C         17.28194         1.44461        -0.76757
C         17.17643         4.30174        -0.31106
C         15.94603         6.33532         0.61279
C         15.91582         7.78319         0.51648
C         17.26822         5.55578         0.56132
C         17.17919         8.56184         0.25150
C         15.87791        10.53989         1.33529
C         15.86771        12.05130         1.20019
C         17.18344         9.92785         0.88345
C         17.14009        12.76435         1.26042
C         15.94914        14.92951         1.25324
C         15.90932        16.35967         1.07275
C         17.13658        14.21430         1.24475
C         17.15293        17.15065         1.39760
C         16.01316        19.16028         0.42030
C         17.19856        18.55054         0.82365
C         18.49072         2.13124        -0.71681
C         18.45377         3.61412        -0.65495
C         19.73843         1.45158        -0.62055
C         19.73722         4.35773        -0.46600
C         18.48455         6.40594         0.23879
C         18.46505         7.79697         0.46387
C         19.71180         5.74218         0.04346
C         19.67435         8.50841         0.61686
C         18.36742        10.62426         1.01312
C         18.33480        12.04713         1.31492
C         19.66377         9.94182         0.84767
C         19.62983        12.71926         1.70570
C         18.44268        14.91079         0.94571
C         18.44712        16.40759         1.17633
C         19.62133        14.21047         1.52644
C         19.61432        17.11399         1.23730
C         18.42658        19.23866         0.82136
C         19.64989        18.56879         1.08424
C         20.97326         2.10442        -0.42856
C         21.02099         3.58681        -0.42955
C         22.18132         1.41869        -0.23441
C         22.22550         4.27822         0.05984
C         20.94109         6.41696         0.24708
C         20.91736         7.80650         0.56077
C         22.18744         5.68779         0.25927
C         22.14941         8.49118         0.81209
C         20.86774        10.62773         0.97946
C         20.82095        12.13734         0.92172
C         22.13600         9.93266         1.01808
C         22.10564        12.83816         1.28020
C         20.88361        14.93400         1.64296
C         20.90110        16.42910         1.50379
C         22.14731        14.19154         1.44457
C         22.17438        17.11535         1.20997
C         20.88342        19.22653         1.01472
C         22.14406        18.54131         1.03974
C         23.41145         2.10229         0.00470
C         23.41300         3.54350         0.19117
C         24.62861         1.40996         0.06671
C         24.63997         4.22959         0.45366
C         23.39237         6.37540         0.57254
C         23.35305         7.77376         0.83389
C         24.63476         5.64286         0.61538
C         24.61968         8.44146         1.31232
C         23.34552        10.61660         1.19205
C         23.37068        12.07594         1.56172
C         24.61656         9.94615         1.15654
C         24.56270        12.75744         0.87763
C         23.40241        14.94546         1.32125
C         23.37997        16.40456         1.18992
C         24.55968        14.25757         1.04347
C         24.60481        17.11300         0.94124
C         23.35551        19.23665         0.89512
C         24.59666        18.54817         0.83986
C         25.86781         2.08456         0.25966
C         25.87163         3.51196         0.46094
C         27.09633         1.40073         0.24455
C         27.09577         4.20301         0.64756
C         25.87302         6.32200         0.79525
C         25.84406         7.82270         0.65839
C         27.07453         5.61700         0.83760
C         27.10985         8.54299         1.04539
C         25.82812        10.62320         1.12060
C         25.88407        12.11256         1.32299
C         27.10436         9.92549         1.06330
C         27.11551        12.75923         0.74311
C         25.76491        14.95667         0.57949
C         25.81998        16.41743         0.72128
C         27.06986        14.18883         0.42156
C         27.04009        17.09250         0.51914
C         25.81924        19.22734         0.63513
C         27.04261        18.53361         0.50310
C         28.32581         2.08545         0.38954
C         28.34719         3.50133         0.59457
C         29.56522         1.38544         0.33945
C         29.59659         4.18752         0.68861
C         28.35114         6.30294         1.13784
C         28.36554         7.81852         1.23542
C         29.62979         5.62517         0.87650
C         29.62622         8.52904         0.99268
C         28.35824        10.65379         0.98615
C         28.33275        12.08543         0.79162
C         29.58501         9.95513         0.87220
C         29.57315        12.80394         0.59146
C         28.32473        14.94892         0.43972
C         28.28433        16.37013         0.39124
C         29.54863        14.23958         0.47733
C         29.50454        17.08937         0.27165
C         28.26988        19.22086         0.31876
C         29.49056        18.53028         0.20076
C         30.77427         2.04871         0.44724
C         30.81391         3.46861         0.59919
C         32.03936         1.22992         0.49826
C         32.08406         4.16231         0.66610
C         30.81346         6.35275         0.89367
C         30.82183         7.80029         0.87922
C         32.13254         5.63262         1.04265
C         32.04733         8.50907         0.58969
C         30.81714        10.66647         0.65396
C         30.79876        12.10288         0.56626
C         32.02498         9.94516         0.49475
C         32.04069        12.82242         0.45828
C         30.77456        14.96247         0.35445
C         30.74309        16.38452         0.21268
C         32.01971        14.26568         0.35490
C         31.95653        17.10143         0.00410
C         30.71652        19.22541         0.02126
C         31.93659        18.54225        -0.09785
C         33.30593         2.03925         0.36329
C         33.27344         3.47676         0.51844
C         34.48744         1.37227         0.17689
C         34.58381         4.21742         0.69490
C         33.30957         6.37374         0.43640
C         33.23150         7.78520         0.29736
C         34.51032         5.66570         0.24520
C         34.40932         8.53117        -0.19108
C         33.25152        10.67798         0.27543
C         33.24647        12.10367         0.36473
C         34.46182         9.99608         0.01440
C         34.53638        12.81120         0.34940
C         33.21032        14.99796         0.14273
C         33.18198        16.39671        -0.08459
C         34.51668        14.33821         0.22531
C         34.40457        17.09423        -0.40103
C         33.16513        19.23365        -0.27183
C         34.38088        18.54988        -0.43864
C         35.74283         2.06781         0.01121
C         35.77100         3.48207         0.12551
C         36.91256         1.36219        -0.30592
C         36.94753         4.18576        -0.18225
C         35.71817         6.32036        -0.11258
C         35.69649         7.76193        -0.41585
C         36.94570         5.62885        -0.22385
C         36.98732         8.48045        -0.35425
C         35.69937        10.69092        -0.11237
C         35.76149        12.09928        -0.03836
C         36.96274         9.93170        -0.08978
C         36.95154        12.84767        -0.34132
C         35.69296        15.00151        -0.36412
C         35.58823        16.39469        -0.65400
C         36.88356        14.28013        -0.56188
C         36.73633        17.12790        -1.30574
C         35.60677        19.24294        -0.52924
C         36.81975        18.57374        -0.84168
C         38.12794         2.04423        -0.53814
C         38.13716         3.47270        -0.51694
C         39.33819         1.34569        -0.82231
C         39.32945         4.18326        -0.84199
C         38.16297         6.32981        -0.54461
C         38.16806         7.78605        -0.46029
C         39.32034         5.61677        -0.88344
C         39.46605         8.50707        -0.51595
C         38.27324        10.72166        -0.24650
C         38.17721        12.15629        -0.55236
C         39.46808         9.97402        -0.65793
C         39.34562        12.80461        -1.03268
C         38.06146        15.00505        -1.02841
C         38.04203        16.36454        -1.23517
C         39.27757        14.23242        -1.38189
C         39.27111        17.11196        -1.59452
C         38.01533        19.25773        -0.87349
C         39.25483        18.63844        -1.36228
C         40.50906         2.03910        -1.06091
C         40.52668         3.45464        -1.08268
C         41.76641         4.17743        -1.27898
C         40.50436         6.31581        -1.51915
C         40.67783         7.75460        -1.06020
C         41.78290         5.52096        -1.41299
C         41.70605         8.55777        -1.73512
C         40.57998        10.65336        -1.13651
C         40.55581        12.10421        -1.22062
C         41.69214         9.91309        -1.69536
C         41.78399        12.83561        -1.38214
C         40.59742        14.97346        -1.64505
C         40.58942        16.45177        -1.52999
C         41.82636        14.19442        -1.46747
C         41.73546        17.19673        -1.42795
C         40.53473        19.29357        -1.08798
C         41.70756        18.61264        -1.19591
O         11.61027         8.52178        -1.38377
O          6.31636        14.83809         1.55859
O         40.52230         7.96824         0.36151
O         10.57023         3.95305        -2.37862
O         39.74983        14.49994        -2.74476
O         26.21182        14.49846        -0.77118
O         15.04477         5.80699         1.63877
O         37.77501        10.32077         1.07383
O         39.11613        18.04816        -2.71283
O         28.35223         6.97010         2.45447
O         34.84065         8.13548        -1.55734
O          4.43917        15.01104        -2.42378
O          2.05792        13.97165         0.34695
O         20.55662         4.21160        -1.68497
O         13.48330        11.59376         2.93029
O          6.51389        12.17847         1.69593
O          8.52896         2.35199        -2.05048
O          8.50633        11.55633        -1.19502
O         17.67479         4.33447        -1.69245
O          2.75668         5.81416        -2.02112
O         20.91863        15.82150         2.85633
O         17.59163         5.09560         1.85221
O         34.75373        13.68621         1.51664
O         13.79554        14.70676         2.46529
O          7.14997        18.38770         0.46646
O          5.90696         8.17578        -2.28375
H          6.59886         7.67553        -2.76536
O          4.87360         8.05421         1.21729
H          4.21644         8.57786         1.72274
O         26.06001        12.34761         2.77207
H         26.80065        11.77865         3.07413
O         11.59187        13.14644         2.65266
H         12.20273        12.66400         3.28342
O          3.25049        16.71420        -3.90133
H          3.69232        15.83640        -3.97894
O         17.13020         8.81168        -1.21084
H         17.97764         9.23650        -1.46553
O         36.42366        17.18817        -2.73789
H         37.22727        17.56087        -3.17550
O         32.00280         0.17488        -0.47391
H         31.97016         0.58061        -1.36422
O         13.32664         2.17698        -2.62078
H         13.98959         2.79170        -2.99961
O         24.40270        12.49937        -0.53895
H         25.05621        13.07789        -1.01037
O         12.56995        13.74588        -0.80990
H         12.49368        14.54351        -1.37400
O         19.88862        12.43506         3.10472
H         19.15105        12.79799         3.63834
O         34.81843         4.27322         2.14378
H         34.05906         4.77656         2.53491
O         40.19757         6.42096        -2.95097
H         40.10601         5.51029        -3.30306
O         24.71210         8.18956         2.74156
H         23.91261         8.56250         3.16939
O          6.90200         4.27532        -2.66100
H          7.19967         3.41763        -3.04489
O         23.46337        12.11767         3.00976
H         24.41614        12.09377         3.27101
O         15.74912        10.23605         2.75793
H         14.90897        10.71488         3.06452
O         25.68843         8.07101        -0.77686
H         26.41930         7.62311        -1.25140
O         17.08189        17.32805         2.85930
H         17.88085        17.82538         3.13728
O         20.54212        12.49621        -0.47663
H         21.31774        12.23145        -1.01759
O          9.73935         8.02544         1.69711
H          8.92822         8.36918         2.12798
O         32.40383         5.65057         2.50278
H         31.58742         5.35223         2.95947
O         18.66595        14.75472        -0.52321
H         19.14257        13.89840        -0.66785
O          9.44406        19.24297         1.36905
H          8.49737        19.02375         1.53896
H          0.36060         1.59342         0.95149
H          0.19739         3.93300         0.16555
H          2.56533         0.42987         1.01005
H          0.09021         5.89550        -0.12459
H          0.11582         8.29320        -0.41793
H          0.16731        10.14076        -1.08745
H          0.12043        12.58420        -1.01378
H          0.33148        14.58635        -1.74409
H          0.72351        16.70793        -2.84704
H          1.91952        18.88718        -2.58542
H          4.98266         0.46952         0.67766
H          3.93417        20.15624        -2.01354
H          7.39287         0.48619         0.44801
H          6.29126        20.16883        -2.15200
H          9.93523         0.49283         0.24279
H          9.25948        19.47112        -1.93361
H         12.43327         0.49270        -0.02682
H         11.24852        20.22579        -0.39087
H         14.88111         0.36263        -1.26092
H         13.64164        20.16593        -0.25472
H         17.28941         0.34834        -0.86595
H         16.02717        20.21033         0.08931
H         19.72639         0.35045        -0.62868
H         18.44915        20.29855         0.52450
H         22.19025         0.31904        -0.28328
H         20.89201        20.31665         0.86287
H         24.63586         0.31884        -0.07591
H         23.34365        20.33193         0.79334
H         27.10774         0.31125         0.09244
H         25.81691        20.32542         0.56648
H         29.56237         0.29275         0.21462
H         28.26756        20.32030         0.27918
H         32.06824         0.71917         1.50286
H         30.70475        20.32414        -0.03391
H         34.47628         0.27629         0.08333
H         33.16088        20.33371        -0.29034
H         36.88482         0.26457        -0.37147
H         35.62403        20.33170        -0.36915
H         39.33207         0.24642        -0.83112
H         38.04842        20.31476        -0.56596
H         41.44494         1.49311        -1.24892
H         42.70601         3.60453        -1.28685
H         42.73725         6.04902        -1.55375
H         42.47013         8.03676        -2.33003
H         42.48379        10.47016        -2.21499
H         42.73089        12.28231        -1.31267
H         42.79451        14.71220        -1.42488
H         42.71641        16.70171        -1.43416
H         40.52223        20.33999        -0.74941
H         42.66151        19.12788        -1.01686
