         294
 CSIRO Nanostructure Databank - Neutral Graphene Oxide Data Set
C          1.80801         2.04500        -1.92649
C          1.74761         3.47260        -1.77115
C          2.96257         1.34835        -1.73080
C          2.84770         4.21089        -1.41618
C          1.72225         6.51236        -1.69386
C          1.80547         7.88157        -1.77309
C          2.92345         5.68290        -1.63057
C          3.02705         8.59703        -1.61585
C          1.83418        10.85229        -2.09050
C          1.71159        12.15501        -1.73774
C          3.12493        10.07855        -1.99703
C          2.75959        12.91914        -1.08047
C          1.56000        15.09031        -1.23694
C          1.43584        16.40645        -0.97386
C          2.72138        14.29678        -0.85360
C          2.46279        17.21206        -0.22877
C          2.72721        18.55099        -0.89428
C          4.11639         1.99747        -1.11019
C          4.05163         3.52453        -0.92153
C          5.46156         1.40759        -1.18680
C          5.42460         4.20650        -0.97529
C          4.22189         6.41321        -1.31182
C          4.18263         7.88767        -1.17875
C          5.36262         5.69719        -0.58796
C          5.34683         8.54298        -0.73352
C          4.08932        10.74898        -1.07203
C          3.90410        12.12018        -0.60547
C          5.31301        10.01488        -0.75612
C          5.09790        12.89404        -0.05238
C          3.85928        15.01604        -0.27896
C          3.77412        16.46972        -0.04046
C          5.04870        14.36214        -0.01732
C          4.86180        17.20413         0.32674
C          3.82883        19.24766        -0.59587
C          4.79818        18.71682         0.44473
C          6.58694         2.01810        -0.67717
C          6.44713         3.44286        -0.09275
C          7.84461         1.32991        -0.75863
C          7.74265         4.26085         0.06996
C          6.70394         6.43954        -1.00270
C          6.61231         7.88196        -0.49246
C          8.03323         5.65592        -0.48061
C          7.70568         8.54150         0.02974
C          6.48190        10.72906        -0.16088
C          6.42926        12.22170         0.00320
C          7.55500         9.94092         0.51346
C          7.59981        12.95774         0.54501
C          6.16207        15.10044         0.71688
C          6.22929        16.57122         0.28195
C          7.58004        14.48955         0.65225
C          7.31731        17.33075         1.04064
C          6.15906        19.38664         0.38911
C          7.32461        18.77694         0.69090
C          8.90169         1.64237         0.10551
C          8.68420         3.71335         0.85813
C         10.26819         1.42101        -0.04684
C          9.93232         4.30682         1.40478
C          8.98398         6.43961         0.41022
C          9.09587         7.91533         0.12031
C         10.00142         5.79495         1.15135
C         10.04968         8.65355         1.05502
C          8.70443        10.70496         1.11489
C          8.64420        12.22426         1.36678
C         10.00031         9.99586         1.26885
C          9.98498        12.95045         1.15756
C          8.54280        15.07739         1.72378
C          8.56287        16.62930         1.54174
C          9.87560        14.41998         1.48941
C          9.87207        17.33024         1.36590
C          8.59792        19.55083         0.95857
C          9.86189        18.70708         0.98159
C         11.25735         2.09931         0.78420
C         11.24780         3.64115         0.88858
C         12.25117         1.32657         1.30972
C         12.34066         4.18687         1.80218
C         11.16280         6.44453         1.58626
C         11.17664         7.93421         1.75448
C         12.30950         5.67576         2.23302
C         12.52511         8.58609         1.40174
C         11.17281        10.73357         1.83727
C         11.12311        12.24136         1.89529
C         12.51684        10.06848         1.76686
C         12.38163        13.00871         1.77403
C         11.09281        15.17241         1.90973
C         11.09599        16.62817         1.39898
C         12.33308        14.35864         1.59740
C         12.32799        17.28993         1.10871
C         11.05722        19.34726         0.70013
C         12.32587        18.69957         0.76294
C         13.26097         1.83367         2.29676
C         13.15194         3.31757         2.44308
C         14.62683         1.37377         1.84519
C         15.07299         4.39118         2.45741
C         13.64601         6.45690         2.14658
C         13.68096         7.82232         1.98053
C         14.91941         5.73377         2.17288
C         15.03247         8.54792         2.15088
C         13.67549        10.77338         1.81716
C         13.72045        12.28744         1.85961
C         15.07060        10.15036         2.03534
C         14.62319        12.77921         0.65898
C         13.33333        14.99525         0.67767
C         13.50775        16.47505         0.90410
C         14.72037        14.31141         0.72880
C         14.78741        16.97315         0.89010
C         13.43951        19.47438         0.31577
C         14.80612        19.09914         0.45455
C         15.80825         2.08413         1.52763
C         16.04691         3.53175         1.79998
C         16.77391         1.38267         0.78033
C         17.14720         4.13060         1.22140
C         16.10127         6.41563         1.62335
C         15.92003         7.81947         1.14969
C         17.26006         5.59205         1.16192
C         16.90584         8.41607         0.21856
C         16.12972        10.74384         1.01993
C         15.98318        12.12544         0.53411
C         17.11229         9.89613         0.23180
C         17.00360        12.74156        -0.25827
C         15.62974        14.98847        -0.31459
C         16.00473        16.31046         0.36842
C         16.67077        14.05516        -0.97488
C         17.16046        17.06946        -0.18691
C         15.87050        19.41828        -0.36927
C         17.03647        18.51083        -0.76419
C         17.87000         2.08004         0.01177
C         18.32861         3.31247         0.77508
C         19.07273         1.25015        -0.37991
C         19.41032         4.06924         0.04275
C         18.16218         6.15545         0.11437
C         18.02218         7.56519        -0.34579
C         19.41541         5.40963        -0.11397
C         19.23787         8.24984        -0.86275
C         17.82083        10.46169        -0.98862
C         17.99134        11.97669        -0.89694
C         19.11805         9.66757        -1.27775
C         18.99565        12.55988        -1.88493
C         17.80775        14.92958        -1.62718
C         18.28551        16.17779        -0.79624
C         19.06928        14.10360        -1.97801
C         19.34609        17.02396        -1.60661
C         18.41621        19.11798        -0.62376
C         19.51600        18.38503        -0.95231
C         20.27250         1.80308        -0.61577
C         20.62053         3.26065        -0.37117
C         21.28578         3.92919        -1.56186
C         20.65868         6.12136        -0.60435
C         20.44384         7.58712        -0.96905
C         21.28078         5.26372        -1.69642
C         21.65519         8.34496        -1.18214
C         20.40279        10.42571        -1.57178
C         20.37939        11.94882        -1.43963
C         21.65660         9.69524        -1.34061
C         21.57507        12.59663        -2.09557
C         20.41922        14.77347        -2.08426
C         20.60432        16.18497        -1.65528
C         21.62571        13.92183        -2.26283
C         21.81335        16.70644        -1.32184
C         20.85832        18.87836        -0.71549
C         21.94484        18.07903        -0.88802
O         19.55663        14.55546        -3.28571
O          8.52042         2.37349         1.27626
O          4.15141        12.26060         0.87014
O         14.13286         3.79916         3.32078
O         15.56448         8.00777        -0.25270
O          7.65766        10.06708         1.95480
O          7.51465        12.67804        -0.88872
O         17.31675         6.28126         2.45380
O         19.58992         9.87653        -2.64906
O         17.12524        16.73192         1.23000
O          3.80542         2.63593         0.18368
O          3.94004         5.99735        -2.66595
O          6.47948        10.46460        -1.59444
O         17.52950        10.46505         1.47166
O         10.85018        11.47502         3.08832
O         15.04310        18.19440         1.50923
O          7.56378        17.18397         2.47495
O         15.53994        10.61079         3.27253
O          6.76561         6.50234        -2.38125
O         17.50985         6.46808        -1.17326
O         11.43215         4.13359        -0.45111
H         12.26505         3.76972        -0.81468
O         19.06219        15.60933         0.27506
H         18.57308        15.77219         1.12174
O         14.20413        12.71275         3.14124
H         14.82493        11.98645         3.48446
O         10.94815         8.15251         3.17620
H         11.46494         7.47452         3.68110
O         16.94440        10.25064        -2.11943
H         17.48961        10.40894        -2.92672
O         21.60600         6.13301         0.50230
H         21.80364         5.18707         0.72349
O          8.18936        14.83305         3.09026
H          7.40887        15.40439         3.29210
O         15.50445         8.19493         3.44700
H         15.70157         9.06522         3.90011
O         18.97277         2.82813         2.00111
H         18.91529         3.54217         2.67197
O          3.69037        10.09391        -3.35691
H          4.57743         9.67376        -3.31676
O          1.91216        17.51379         1.09880
H          1.62126        16.66757         1.49999
O         12.66655         8.49581        -0.03983
H         13.62272         8.52305        -0.27989
O          5.86280         4.07156        -2.33689
H          6.11043         4.97975        -2.68591
O          5.76203        15.06628         2.10705
H          4.88130        15.49128         2.18187
O         15.35879        14.66292         1.96728
H         14.94561        14.14090         2.71022
O          9.87710         4.09373         2.84353
H          9.56428         3.17101         2.98083
O          8.84809         5.50275        -1.66833
H          8.22601         5.75801        -2.42737
O         21.56838         3.29100         0.74343
H         21.07390         2.93845         1.51998
O         17.24604         2.55218        -1.22046
H         17.01765         1.77122        -1.76611
O          9.70012         8.06555        -1.20021
H          9.55021         7.21874        -1.69299
O          4.23860        19.04456         1.74880
H          3.31803        18.68387         1.76096
O          6.56211        16.71178        -1.12470
H          7.48816        16.39536        -1.24898
O         13.89125        12.39675        -0.53923
H         14.47709        12.60147        -1.31576
O         18.98049        17.27308        -2.98264
H         18.86791        16.39195        -3.42481
O          8.73130        20.64259         0.04551
H          8.71816        20.28739        -0.86640
O         17.24830        15.38654        -2.86619
H         16.30278        15.62974        -2.68966
O          5.14096         5.86058         0.81723
H          5.31265         5.00101         1.28048
O         18.61217        12.12559        -3.20331
H         19.04463        12.74290        -3.84029
O         11.97884         5.68382         3.65732
H         11.17634         5.11307         3.76108
O          5.91792         3.33542         1.25266
H          6.55405         2.78972         1.76752
O          8.25346        12.37569         2.73455
H          8.93335        11.92794         3.29192
O         20.44590        12.25653        -0.02423
H         21.31000        11.95863         0.32882
O         11.00169        15.26666         3.37245
H         10.05048        15.18704         3.62980
O         14.93123        15.56806        -1.45291
H         14.03970        15.14336        -1.55999
O         12.96078         1.23902         3.59667
H         13.52337         1.70319         4.25388
O         15.92438        13.48122        -2.10796
H         16.56638        12.98402        -2.66701
O         12.66922        14.77944        -0.61587
H         12.47128        13.81091        -0.68240
O         16.69852        18.30579        -2.16154
H         17.51764        18.07262        -2.67861
O         10.37274        12.84309        -0.24850
H          9.75753        13.40603        -0.77149
O          8.26340        14.93995        -0.55837
H          7.94338        14.35081        -1.28941
H          0.92727         1.53769        -2.34511
H          0.82984         3.98125        -2.10068
H          3.04444         0.29611        -2.04044
H          0.73444         6.02917        -1.69171
H          0.87762         8.45142        -1.92565
H          0.98701        10.37290        -2.60312
H          0.75492        12.65621        -1.94672
H          0.73712        14.58245        -1.75981
H          0.51758        16.93309        -1.27620
H          1.98141        18.93725        -1.60559
H          5.55468         0.40703        -1.63930
H          4.01655        20.23404        -1.04693
H          7.98531         0.56824        -1.54095
H          6.16225        20.47539         0.21728
H         10.61281         0.65116        -0.75502
H          8.49372        20.00761         1.98216
H         12.23686         0.24148         1.12213
H         11.02211        20.41061         0.41850
H         14.64719         0.30535         1.56858
H         13.20871        20.38010        -0.26774
H         16.54535         0.33951         0.50280
H         15.68299        20.19314        -1.13133
H         18.92592         0.17042        -0.54997
H         18.53152        20.11511        -0.17221
H         21.10626         1.15994        -0.94161
H         21.77434         3.29092        -2.31428
H         21.77447         5.74801        -2.55275
H         22.60864         7.81147        -1.06214
H         22.60685        10.24767        -1.30196
H         22.45054        11.97884        -2.34495
H         22.52374        14.39447        -2.68908
H         22.72357        16.09065        -1.37146
H         20.97545        19.90971        -0.35154
H         22.95241        18.46249        -0.67546
