         241
 CSIRO Nanostructure Databank - Neutral Graphene Oxide Data Set
C          1.17060         2.11082        -0.28136
C          1.10861         3.46157        -0.32476
C          2.41618         1.41835        -0.48153
C          2.30823         4.28578        -0.71996
C          1.15212         6.52458        -0.52385
C          1.19950         7.86537        -0.40233
C          2.29454         5.66151        -0.04212
C          2.40608         8.54803         0.05629
C          1.19497        10.70193         0.44046
C          1.16915        12.03668         0.74836
C          2.40265         9.93958         0.38192
C          2.37344        12.80452         1.05325
C          1.18948        15.08243         0.50348
C          1.25090        16.41517         0.22645
C          2.39395        14.34025         0.89415
C          2.49129        17.13361         0.28077
C          2.52615        18.54473         0.12156
C          3.60892         2.09858        -0.59571
C          3.62217         3.53851        -0.54489
C          4.87664         1.27509        -0.72257
C          4.81259         4.25594        -0.46432
C          3.61737         6.40156        -0.12568
C          3.60719         7.80495         0.10595
C          4.81246         5.67913        -0.23562
C          4.85701         8.50298         0.58836
C          3.65735        10.64675         0.52141
C          3.70101        12.05008         1.09510
C          4.84610         9.98121         0.36862
C          4.92148        12.84155         0.66417
C          3.69336        15.00942         0.69736
C          3.70908        16.41095         0.47635
C          4.91574        14.27141         0.68753
C          4.95689        17.11902         0.44792
C          3.71566        19.23863         0.15803
C          4.96359        18.55253         0.30748
C          6.15904         2.06537        -0.59955
C          6.09271         3.53784        -0.74627
C          7.34969         1.43137        -0.42821
C          7.39933         4.27132        -0.70679
C          6.09610         6.36244         0.07834
C          6.14867         7.83051         0.22508
C          7.38626         5.65224        -0.14383
C          7.35732         8.50914         0.31988
C          6.11397        10.70733         0.01391
C          6.11644        12.15927         0.42727
C          7.38708         9.96925         0.36363
C          7.35891        12.85408         0.40164
C          6.16142        14.97254         0.59262
C          6.17285        16.41173         0.54443
C          7.37709        14.25003         0.54309
C          7.42055        17.11759         0.47019
C          6.18092        19.24406         0.29978
C          7.41959        18.55333         0.36275
C          8.64239         2.11988        -0.43685
C          8.65416         3.52555        -0.55001
C          9.84194         1.40197        -0.33850
C          9.93341         4.31208        -0.70488
C          8.66221         6.39836        -0.06144
C          8.62648         7.80505         0.27895
C          9.84149         5.69877        -0.10992
C          9.84531         8.50526         0.40790
C          8.57408        10.67083         0.40329
C          8.60912        12.11442         0.31026
C          9.87034         9.97543         0.73802
C          9.82377        12.78860         0.13328
C          8.69356        14.94883         0.77712
C          8.64533        16.41524         0.44702
C          9.87546        14.23240         0.16281
C          9.85777        17.09701         0.26018
C          8.65072        19.23963         0.32323
C          9.87024        18.53620         0.25710
C         11.15702         2.06990        -0.63346
C         11.14846         3.53426        -0.25644
C         12.38178         1.33357        -0.15716
C         12.27601         4.17951         0.16780
C         11.04131         6.32923         0.53348
C         11.07244         7.81867         0.36431
C         12.32218         5.61923         0.24975
C         12.31172         8.49912         0.21866
C         11.10177        10.66972         0.19768
C         11.06918        12.05794        -0.04238
C         12.30797         9.95262         0.06090
C         12.25320        12.74078        -0.44612
C         11.01984        14.92031        -0.17888
C         11.07003        16.36574        -0.02102
C         12.16308        14.18865        -0.87165
C         12.25646        17.06472        -0.21276
C         11.11942        19.20336         0.22682
C         12.31263        18.48955         0.03193
C         13.51774         1.97812         0.23460
C         13.50488         3.43939         0.61648
C         14.78549         1.30036         0.39702
C         14.78223         4.17290         0.26538
C         13.52052         6.31920         0.13411
C         13.49678         7.75819         0.04447
C         14.77426         5.57457         0.09890
C         14.71611         8.46667        -0.37437
C         13.50762        10.65668        -0.24263
C         13.46363        12.05229        -0.52651
C         14.75958         9.93847        -0.31492
C         14.74005        12.71282        -1.03145
C         13.50593        14.91620        -0.85031
C         13.44428        16.40237        -0.79851
C         14.68516        14.24637        -1.01682
C         14.72768        17.20534        -0.85296
C         13.57214        19.12943         0.18981
C         14.78199        18.45905        -0.05929
C         15.97276         2.00581         0.42818
C         15.99315         3.45192         0.31510
C         17.26559         1.28163         0.37518
C         17.23533         4.17476         0.34840
C         16.02022         6.26573        -0.00554
C         16.02650         7.69755        -0.37415
C         17.22150         5.59658         0.17679
C         17.26986         8.47060        -0.24058
C         15.98277        10.60424        -0.37660
C         15.94554        12.12698        -0.22443
C         17.21100         9.87395        -0.34543
C         17.25509        12.80301        -0.62083
C         15.96619        14.97426        -1.30910
C         16.01199        16.49882        -1.17219
C         17.25128        14.19302        -1.17365
C         17.26558        17.19719        -0.77716
C         15.99812        18.91717         0.45983
C         17.24531        18.29320         0.15181
C         18.55739         2.06558         0.48667
C         18.45166         3.52020         0.63032
C         19.83650         1.40288         0.82331
C         19.58367         4.28728         1.17363
C         18.55970         6.28223         0.00417
C         18.49988         7.79750        -0.01163
C         19.55486         5.81363         1.07172
C         19.72104         8.49617         0.10630
C         18.49951        10.54501        -0.60547
C         18.50382        11.99943        -0.92430
C         19.76233         9.89407        -0.20856
C         19.80195        12.72976        -0.86042
C         18.50680        14.26959        -2.06690
C         18.50156        16.84535        -1.32263
C         19.79016        14.08590        -1.25813
C         19.73530        17.15345        -0.67036
C         18.46509        18.86320         0.56378
C         19.71068        18.28892         0.20148
C         20.93244         2.10146         1.17207
C         20.88109         3.56156         1.42732
C         22.12010         4.35351         1.36991
C         20.92334         6.44885         0.83525
C         20.95021         7.80272         0.45452
C         22.11014         5.69506         1.10556
C         22.16244         8.57355         0.42673
C         20.95931        10.62112        -0.17888
C         20.98277        12.05227        -0.48658
C         22.16441         9.91375         0.14530
C         22.15776        12.83475        -0.45983
C         20.93248        14.90909        -1.04642
C         20.94035        16.38909        -0.85897
C         22.10863        14.20570        -0.66915
C         22.12960        17.03380        -0.48493
C         20.95043        18.84260         0.62730
C         22.13087        18.26762         0.19701
O          6.70856         4.06487        -1.99377
O         15.30197         7.93516        -1.62758
O         15.97540        15.85213        -2.48841
O         19.95824         3.87655         2.55165
O          6.77756         5.64576         1.20741
O         18.45573        13.92071        -3.23382
O         17.60555        13.94801         0.23119
O          2.23724        13.67814         2.22576
O         13.83280        17.17411        -2.00183
O         18.44761        11.05542        -2.02525
O         19.10259         5.85718        -1.27569
H         18.50778         6.18202        -1.98411
O         19.07912         6.32188         2.33962
H         19.46096         5.73648         3.03416
O          9.99991        10.05604         2.20260
H          9.17016         9.70737         2.59226
O         10.83721         6.10915         1.99460
H         10.00276         6.56568         2.23942
O          2.07601         5.41317         1.37835
H          2.22627         6.25608         1.85658
O          4.78521         8.36219         2.07619
H          4.45846         9.21427         2.44343
O         10.07875         4.51559        -2.15335
H         10.29571         3.62721        -2.53399
O         15.71706        12.39009         1.17471
H         16.27297        13.16406         1.42464
O         14.95186        12.31337        -2.40086
H         14.19881        12.63740        -2.93839
O          6.09092        10.74126        -1.46650
H          6.92638        11.16205        -1.76281
O         11.27435         2.05153        -2.12682
H         12.20853         2.25840        -2.34743
O          8.91423        14.88088         2.23511
H          8.15321        15.32382         2.66706
O         18.02732         1.55747        -0.81874
O          3.94535        11.76841         2.51894
H          3.54241        12.51919         3.01807
O          4.85815         0.17768         0.19921
H          4.81573         0.54115         1.10730
O          2.19296         4.53868        -2.15597
H          2.21666         3.67254        -2.61432
O         18.57127        16.30112        -2.55542
H         17.65393        16.22056        -2.93520
O         13.45457         3.45931         2.08253
H         14.25251         2.99381         2.41092
O         11.80825        14.16281        -2.29826
H         11.84716        15.08626        -2.62915
H          0.27161         1.51757        -0.05894
H          0.15427         3.97901        -0.14974
H          2.42538         0.31933        -0.46860
H          0.24096         6.03772        -0.90100
H          0.33005         8.46821        -0.70198
H          0.23599        10.19465         0.26631
H          0.19841        12.54387         0.83952
H          0.21786        14.57096         0.53047
H          0.33150        16.97063        -0.01057
H          1.57816        19.08352        -0.02226
H          4.87151         0.81301        -1.75081
H          3.72283        20.33226         0.04511
H          7.35581         0.33569        -0.32124
H          6.18218        20.34028         0.20767
H          9.81595         0.30790        -0.22646
H          8.65830        20.33933         0.30383
H         12.41762         0.24937        -0.35341
H         11.15438        20.29607         0.34512
H         14.80928         0.20039         0.35142
H         13.59913        20.13912         0.62537
H         17.25907         0.20861         0.67375
H         16.00153        19.82193         1.08480
H         19.89896         0.31779         0.65432
H         18.45253        19.76917         1.18592
H         21.89507         1.58747         1.31567
H         23.07868         3.82360         1.47056
H         23.08243         6.20295         1.02634
H         23.11849         8.08741         0.66326
H         23.12016        10.45484         0.16096
H         23.12607        12.38042        -0.21025
H         23.04799        14.75528        -0.52935
H         23.10547        16.57062        -0.67903
H         20.95717        19.73734         1.26519
H         23.09453        18.72114         0.46872
