         280
 CSIRO Nanostructure Databank - Neutral Graphene Oxide Data Set
C        -11.13939         0.75630        -0.94480
C         -9.87413         1.52146        -0.80149
C         -8.60157         0.74277        -0.55032
C         -7.44214         1.49412        -0.02069
C         -6.17877         0.72891         0.13302
C         -4.91379         1.56230         0.23156
C         -3.64847         0.72943         0.55757
C         -2.37793         1.45274         0.88770
C         -1.09059         0.73099         1.25155
C          0.06885         1.44838         1.99848
C          1.33065         0.73596         1.50140
C          2.59535         1.46480         1.17188
C          3.87439         0.71137         0.86054
C          5.14787         1.45084         0.56166
C          6.46548         0.68975         0.53158
C          7.50883         1.45272        -0.28875
C          8.72280         0.68743        -0.68392
C         10.04626         1.44848        -0.82010
C         11.21856         0.60139        -0.36724
C         -9.87967         2.94281        -0.46499
C         -8.70682         3.61759        -0.11524
C         -7.47897         2.85864         0.11451
C         -6.33380         3.58799         0.73806
C         -5.06466         2.86090         1.01387
C         -3.79413         3.60195         1.37389
C         -2.49258         2.86251         1.36544
C         -1.21616         3.66077         1.45592
C          0.08455         2.97973         1.76197
C          1.39816         3.78822         1.53435
C          2.69633         2.94352         1.42807
C          3.97043         3.66655         1.08798
C          5.26781         2.92950         0.83154
C          6.55348         3.68062         0.58147
C          7.76932         2.89878         0.09290
C          8.75860         3.62107        -0.77289
C          9.87155         2.83250        -0.12941
C         -8.69582         5.03552         0.01650
C         -7.51232         5.79560         0.23952
C         -6.24365         5.06507         0.50934
C         -4.99675         5.82746         0.85434
C         -3.76610         5.13126         1.39036
C         -2.44749         5.85108         1.21653
C         -1.35495         4.93939         0.64088
C         -0.01609         5.53772         0.19606
C          1.26907         4.80057         0.39843
C          2.55951         5.48320        -0.03697
C          3.87761         5.09785         0.61626
C          5.13243         5.84699         0.25401
C          6.54833         5.21656         0.31829
C          7.25337         5.54295        -1.04489
C          8.62203         4.90265        -1.14496
C         -7.48049         7.16421         0.08666
C         -6.26728         8.04264         0.24770
C         -5.02590         7.33287         0.85595
C         -3.70826         8.04139         0.73412
C         -2.33873         7.35991         0.94172
C         -1.31986         7.68031        -0.18604
C          0.08189         7.06367         0.10801
C          1.24246         7.63846        -0.73231
C          2.46593         6.77184        -0.79925
C          3.76411         7.37027        -1.14772
C          4.98341         7.00955        -0.68494
C          6.17396         7.76211        -1.11646
C          7.32438         7.04172        -1.23429
C         -5.82832         8.67331        -1.07541
C         -4.66197         9.32770        -1.16293
C         -3.73157         9.41619         0.03765
C         -2.34627         9.93312        -0.29795
C         -1.22702         9.18668        -0.32781
C          0.13005         9.85025        -0.31795
C          1.32065         9.02066        -0.77509
C          2.50804         9.86659        -0.91912
C          3.69934         9.49798        -1.48157
C          5.04291        10.03743        -1.32606
C          6.13779         9.22280        -1.26420
C        -11.19872        -0.55921        -0.69058
C        -10.07900        -1.30550         0.01800
C         -8.66601        -0.78142        -0.37567
C         -7.62105        -1.32890         0.64018
C         -6.22505        -0.75296         0.34835
C         -5.05093        -1.44691         0.98753
C         -3.73375        -0.68840         1.06397
C         -2.46611        -1.43547         1.36764
C         -1.11492        -0.76169         1.26488
C          0.06777        -1.50746         1.81455
C          1.38548        -0.75116         1.79126
C          2.65950        -1.49880         1.52770
C          3.93406        -0.77639         1.13952
C          5.14095        -1.52127         0.65349
C          6.26876        -0.74154         0.03367
C          7.47587        -1.50824        -0.40365
C          8.80318        -0.78067        -0.28466
C          9.97721        -1.45172        -1.02254
C         11.21973        -0.73465        -0.50927
C        -10.11740        -2.82674        -0.28316
C         -8.77317        -3.52007        -0.15871
C         -7.65385        -2.87154         0.59594
C         -6.41131        -3.67817         0.86240
C         -5.11234        -2.93723         1.20668
C         -3.80622        -3.73828         1.44492
C         -2.49620        -2.93001         1.18800
C         -1.19965        -3.69002         1.20085
C          0.05365        -2.99905         1.69867
C          1.36395        -3.76553         1.71657
C          2.60506        -2.98862         1.29153
C          3.83884        -3.71936         0.80865
C          5.07576        -2.98611         0.20046
C          6.44106        -3.65960         0.29432
C          7.53017        -2.97598        -0.15892
C          8.81011        -3.65024        -0.44165
C          9.94570        -2.94436        -0.81377
C         -8.62662        -4.75939        -0.69285
C         -7.39447        -5.53602        -0.64135
C         -6.36582        -5.17408         0.44256
C         -4.95630        -5.56919        -0.05997
C         -3.73947        -4.95048         0.52500
C         -2.42880        -5.71631         0.41899
C         -1.24416        -5.23198         1.27192
C          0.09240        -5.77593         0.73061
C          1.35296        -5.22232         1.35491
C          2.65215        -6.04683         1.21411
C          3.95837        -5.18799         1.12457
C          5.26944        -5.87390         0.84979
C          6.59190        -5.10318         0.68612
C          7.66527        -5.83805        -0.09670
C          8.79709        -5.07615        -0.48696
C         -7.23789        -6.62639        -1.43803
C         -5.89790        -7.28747        -1.66744
C         -4.91710        -6.99501        -0.55086
C         -3.68969        -7.83552        -0.43177
C         -2.40733        -7.10704        -0.13395
C         -1.09766        -7.97174        -0.07164
C          0.13042        -7.01220        -0.11769
C          1.44516        -7.67129        -0.44792
C          2.68254        -7.11343         0.13700
C          3.90851        -7.97689         0.22073
C          5.20516        -7.20021         0.07866
C          6.47517        -8.05276         0.24891
C          7.64179        -7.21384        -0.22844
C         -5.89753        -8.74361        -2.06573
C         -4.80950        -9.52075        -1.95077
C         -3.59328        -9.21061        -1.09631
C         -2.25284        -9.43022        -1.76745
C         -1.10310        -8.93976        -1.26524
C          0.22973        -9.39037        -1.86020
C          1.44749        -9.04313        -1.02123
C          2.56954        -9.80149        -0.98999
C          3.84929        -9.34963        -0.36653
C          5.14877        -9.91604        -0.82001
C          6.33153        -9.34698        -0.52790
O          3.70131         8.29018        -2.20379
O         -4.74502        -7.88819         0.58348
O         -5.37878        -2.00853         2.29541
O          7.73298         1.09878        -1.67842
O          2.73851        -3.39832        -0.11238
O          0.47786         4.59344        -0.80502
O        -10.33217        -1.09787         1.41134
H        -10.84617        -1.88288         1.71635
O          4.81053        -5.64769         2.21865
O         -5.22828         5.36093        -0.52241
O         -0.68471         3.67488         2.79557
O          0.49023         7.38909         1.45587
H          0.46500         8.37188         1.57383
O          3.82448        -9.10968         1.10042
O         -0.69041        -0.05830         0.07811
O         -3.26191         2.99301         2.59732
O          4.27006         1.06809        -0.51878
O          6.50823        -1.00544        -1.36490
O         -7.92565        -0.88342         1.96222
H         -7.63978        -1.59839         2.57973
O         -6.05070         3.01388         2.06806
O          4.99814        -1.21319         2.06106
O         -0.17499        -2.31619         2.98360
O         -1.83069         7.97416         2.14189
H         -2.32544         7.56679         2.88993
O         -6.00202        -0.25449        -0.98562
O          0.09577        -5.69697        -0.72788
O          6.77460        -3.93796         2.78021
H          5.97273        -4.28504         3.24932
O         -1.76694        -3.21566        -0.04976
O         -3.01483         5.62355         2.53172
O         -2.19424        -5.98066        -0.99670
O          1.30198        -4.77232         2.76194
O          7.28888         5.84773         1.35868
H          6.80852         5.69546         2.20094
O          6.19966         3.26240         1.92861
O          2.54286         5.46053        -1.50239
O         -3.80021        -4.16017         2.80521
H         -4.24487        -3.46841         3.34312
O          4.46703         6.06508         1.54217
O          0.40968        10.19943         1.06194
H         -0.40155        10.58775         1.45231
O         -1.04821        -8.63399         1.12606
O          0.41294        -8.75222        -3.13769
H          0.51520        -7.78789        -2.99070
O          1.61431         1.13133         0.13480
O         -6.63244        -5.97815         1.53472
O         -4.45846         8.01793         2.00093
O          2.33804        -6.73232        -1.21776
O          8.95392         2.71897         1.05271
O         -2.69057         1.07865        -0.48220
O         -3.22051        -0.83105         2.44224
O         -8.92373         1.17287        -1.91179
O          9.87656        -1.22902        -2.44614
H         10.09080        -0.28190        -2.62338
O         -5.32970        -6.57221        -2.81524
H         -5.92240        -6.70822        -3.58353
O          6.97811         0.61413         1.87980
H          6.99217         1.52936         2.25723
O         -7.41926        -3.46683         1.90564
O         -1.84239         7.12198        -1.40023
H         -1.16102         7.17733        -2.10173
O         -3.64112       -10.19697        -0.03177
H         -4.22399        -9.83258         0.67232
O          3.60864         3.34469         2.48294
O          7.24273        -5.10301         2.06046
O         -4.29335        10.38698         0.96258
H         -4.04801        10.09738         1.86963
O         -4.74624         2.09070        -1.10664
H         -4.70862         1.33075        -1.72838
O         -4.25648        -4.57409        -0.81351
O         10.24957         1.69627        -2.23573
H          9.35900         1.88072        -2.61797
O          4.86962        -2.97762        -1.22729
H          3.92602        -2.77299        -1.41763
O          2.26128        -1.12119         2.88394
O          1.53671         4.65624         2.66760
H          2.35540         4.41455         3.16262
O          6.36814         4.95806        -2.03352
H          6.66746         5.22843        -2.92643
O         -0.07086         1.20985         3.39562
H         -0.57644         1.96440         3.78118
O          2.72061        -6.83656         2.40641
H          2.61052        -6.24470         3.18236
O          5.22960        -6.76554        -1.31114
H          4.31236        -6.55660        -1.60510
O          9.17176        -0.83522         1.11280
H          8.46509        -0.39750         1.65333
O          6.69696        -8.36293         1.63881
H          6.64665        -7.53213         2.15953
O         -2.00009         4.49988        -0.58994
H         -1.30871         4.15178        -1.19968
O         -6.69382         9.10886         1.11288
H         -5.96090         9.77607         1.14672
O         -1.45166        -5.66767         2.60945
H         -0.67774        -5.40470         3.15574
O        -11.04345        -3.43503         0.63684
H        -10.66894        -4.28469         0.94926
O         -8.35199        -1.38171        -1.64733
H         -8.39200        -0.67208        -2.32959
H         12.10763        -1.32044        -0.22587
H         12.11513         1.12327         0.00211
H         10.82376         3.35374         0.11689
H          9.47870         5.49329        -1.50321
H          8.28129         7.51810        -1.49488
H          7.12571         9.71039        -1.22174
H          5.18326        11.12734        -1.25663
H          2.43992        10.84352        -0.41736
H          0.08235        10.80027        -0.92422
H         -2.26718        11.02857        -0.40016
H         -4.36524         9.82092        -2.10077
H         -6.50986         8.63161        -1.93830
H         -8.42003         7.69352        -0.13598
H         -9.63057         5.58230        -0.18184
H        -10.83361         3.49130        -0.49056
H        -12.01635         1.29276        -1.34020
H        -12.14973        -1.09665        -0.83095
H        -10.50357        -2.98159        -1.33079
H         -9.46393        -5.19357        -1.26540
H         -8.04930        -6.89366        -2.13752
H         -6.77419        -9.11453        -2.62209
H         -4.84566       -10.54747        -2.34919
H         -2.21408       -10.15612        -2.59615
H          0.19941       -10.49177        -2.05164
H          2.57265       -10.78351        -1.48972
H          5.12141       -10.85031        -1.40226
H          7.26097        -9.83120        -0.86616
H          8.51548        -7.71898        -0.67210
H          9.67321        -5.60123        -0.89829
H         10.85035        -3.51498        -1.08066
