         204
 CSIRO Nanostructure Databank - Neutral Graphene Oxide Data Set
C        -10.94613         0.71572         1.01037
C         -9.75547         1.47239         0.69352
C         -8.53592         0.75430         0.42008
C         -7.35008         1.46409         0.09295
C         -6.13110         0.74928        -0.16039
C         -4.94318         1.43788        -0.53301
C         -3.76331         0.72107        -0.84019
C         -2.55526         1.44901        -1.29837
C         -1.24686         0.71323        -1.24437
C          0.01847         1.45472        -1.04807
C          1.23863         0.71925        -1.02060
C          2.47358         1.43201        -0.88527
C          3.69828         0.70578        -0.79065
C          4.93612         1.41978        -0.62416
C          6.15901         0.68836        -0.35255
C          7.36532         1.42783         0.01628
C          8.50126         0.72768         0.48129
C          9.70779         1.42074         0.75037
C         10.89116         0.67419         1.14480
C         -9.76506         2.85876         0.66578
C         -8.59045         3.61136         0.32332
C         -7.36761         2.88883         0.01902
C         -6.16966         3.60031        -0.25537
C         -4.94793         2.89055        -0.51971
C         -3.76173         3.60572        -0.69917
C         -2.53759         2.97736        -1.31497
C         -1.25151         3.57176        -0.77051
C         -0.01609         2.84801        -0.81636
C          1.23670         3.58394        -0.70803
C          2.48844         2.85941        -0.82930
C          3.72830         3.54058        -0.76005
C          4.94337         2.82401        -0.65183
C          6.25951         3.56531        -0.75594
C          7.41210         2.82420        -0.12446
C          8.60591         3.53558         0.19618
C          9.75497         2.81254         0.60023
C         -8.61641         4.99521         0.28597
C         -7.47125         5.78093        -0.28045
C         -6.16378         5.02862        -0.24057
C         -4.95608         5.72682        -0.28196
C         -3.72847         5.01260        -0.49731
C         -2.47805         5.68153        -0.44545
C         -1.27590         4.93724        -0.44536
C         -0.02886         5.56371         0.12581
C          1.22230         4.94379        -0.43214
C          2.43373         5.75617        -0.54666
C          3.76229         5.01395        -0.76694
C          4.99700         5.71361        -0.35283
C          6.19771         5.00745        -0.30584
C          7.41915         5.69199        -0.00151
C          8.61924         4.95900         0.15570
C         -7.36035         7.17843         0.25781
C         -6.16348         7.84031         0.30848
C         -4.91681         7.15807        -0.02583
C         -3.71625         7.84212        -0.01477
C         -2.44693         7.18710        -0.50969
C         -1.18616         7.80446         0.05571
C         -0.03526         7.07475         0.13951
C          1.24513         7.71605         0.50528
C          2.49227         7.09676         0.06123
C          3.70124         7.79130         0.14819
C          4.95562         7.10669        -0.04899
C          6.18550         7.80516         0.15277
C          7.39200         7.10110         0.16743
C         -6.09208         9.24887         0.64796
C         -4.91489         9.92625         0.60382
C         -3.67216         9.25408         0.28872
C         -2.46470         9.93224         0.31902
C         -1.19521         9.25160         0.26661
C         -0.02249         9.94964         0.47290
C          1.25322         9.26432         0.67574
C          2.53120         9.94055         0.49480
C          3.70895         9.22688         0.39851
C          4.98294         9.91520         0.42673
C          6.15823         9.23827         0.34877
C        -10.92919        -0.64514         1.08767
C         -9.71752        -1.40052         0.88080
C         -8.51017        -0.66881         0.53500
C         -7.30337        -1.35833         0.34731
C         -6.10581        -0.67166        -0.04107
C         -4.90803        -1.37332        -0.35384
C         -3.72502        -0.70089        -0.74419
C         -2.47906        -1.44394        -0.94237
C         -1.24686        -0.74415        -1.01444
C         -0.00620        -1.41380        -1.10850
C          1.23649        -0.71834        -1.12718
C          2.49495        -1.44201        -1.13688
C          3.69322        -0.71033        -0.92169
C          4.99541        -1.40558        -0.94961
C          6.18367        -0.69561        -0.42353
C          7.31507        -1.45906         0.05350
C          8.37234        -0.72506         0.84999
C          9.69688        -1.44990         0.90505
C         10.89015        -0.68602         1.18489
C         -9.71394        -2.78858         0.98269
C         -8.51261        -3.54989         0.84950
C         -7.26108        -2.79114         0.67708
C         -6.01826        -3.56420         0.31365
C         -4.96124        -2.84285        -0.43736
C         -3.72129        -3.62372        -0.77848
C         -2.45861        -2.87888        -0.91178
C         -1.27340        -3.61357        -1.03787
C         -0.03680        -2.86641        -1.34647
C          1.27156        -3.61008        -1.47513
C          2.53297        -2.88338        -1.21781
C          3.72429        -3.62304        -0.99843
C          5.02331        -2.91185        -1.02933
C          6.32119        -3.66861        -0.73200
C          7.35341        -2.83286         0.00574
C          8.50509        -3.55411         0.53422
C          9.70742        -2.81570         0.84267
C         -8.46920        -4.93900         0.87004
C         -7.27467        -5.68925         0.58933
C         -6.08245        -5.02551         0.20877
C         -4.89581        -5.73885        -0.11155
C         -3.68647        -5.06181        -0.46032
C         -2.47347        -5.75773        -0.59266
C         -1.25112        -5.04923        -0.90533
C         -0.04579        -5.78364        -1.01694
C          1.22212        -5.10653        -1.35597
C          2.51772        -5.82188        -1.01690
C          3.72856        -5.02446        -0.76321
C          4.87320        -5.69521        -0.22845
C          6.10025        -5.00549        -0.06066
C          7.20649        -5.64069         0.53948
C          8.43808        -4.91740         0.72897
C         -7.27126        -7.11200         0.63221
C         -6.10528        -7.83953         0.39115
C         -4.88784        -7.16075         0.03690
C         -3.67759        -7.87409        -0.11949
C         -2.46053        -7.18510        -0.42140
C         -1.24145        -7.89774        -0.52660
C         -0.02236        -7.19891        -0.79458
C          1.21956        -7.90187        -0.65255
C          2.43166        -7.21008        -0.53462
C          3.59325        -7.82185         0.01658
C          4.78194        -7.07361         0.19244
C          5.91424        -7.69605         0.82004
C          7.09502        -6.97821         0.99319
C         -6.07580        -9.27764         0.51721
C         -4.91473        -9.97393         0.36724
C         -3.66823        -9.30440         0.07478
C         -2.47130        -9.99652         0.01459
C         -1.23061        -9.32878        -0.26706
C         -0.05081       -10.04129        -0.27573
C          1.25779        -9.41051        -0.62189
C          2.39038        -9.94757         0.21097
C          3.51847        -9.20484         0.45765
C          4.66717        -9.77757         1.12817
C          5.81039        -9.06047         1.28602
O          2.01459        -5.73581        -2.40666
O          1.25970         8.33061         1.82359
O         -4.75302        -3.32145        -1.80426
O          6.92460        -3.99874        -2.01954
H          6.65254        -3.28357        -2.64227
O         -2.38328         7.50075        -1.94978
H         -3.09794         6.99568        -2.39372
O          5.19925        -2.10392        -2.24642
O         -2.59751         3.39909        -2.71470
H         -2.16113         2.68033        -3.23349
O         -0.03046         5.18824         1.55691
H         -0.70958         5.73341         2.00842
O          7.86535        -0.72517         2.24062
H          8.53405        -0.26130         2.78851
O         -1.95696         0.95229        -2.54458
O          6.55305         3.60941        -2.19967
H          7.38427         4.11774        -2.31230
O          0.54889        -3.17646        -2.67376
O          1.56110        -9.83484        -2.01472
H          2.30671        -9.27877        -2.32874
O          3.07090         5.65682        -1.87392
O         -6.20688        -3.08112         1.68299
O         -7.79550         5.93989        -1.72493
H         -7.84485         5.03748        -2.10748
H         11.81737        -1.23479         1.40924
H         11.81329         1.23600         1.35284
H         10.68561         3.35562         0.82101
H          9.55087         5.49360         0.39136
H          8.33476         7.63790         0.34957
H          7.11643         9.77204         0.42993
H          4.97767        11.00537         0.57277
H          2.55103        11.04046         0.46301
H         -0.04030        11.04993         0.50079
H         -2.46081        11.01282         0.52882
H         -4.88132        11.00116         0.83535
H         -7.02624         9.77025         0.90390
H         -8.29204         7.71646         0.49181
H         -9.55523         5.52582         0.50647
H        -10.69349         3.40406         0.89203
H        -11.87956         1.26836         1.19284
H        -11.84952        -1.19585         1.33235
H        -10.65779        -3.31663         1.18679
H         -9.39888        -5.49899         1.05331
H         -8.19449        -7.64286         0.90864
H         -7.01244        -9.80214         0.75686
H         -4.90324       -11.06768         0.48329
H         -2.45561       -11.08275         0.18872
H         -0.06766       -11.12545        -0.08727
H          2.36054       -11.00798         0.50478
H          4.60130       -10.81613         1.48345
H          6.68653        -9.50805         1.77772
H          7.95980        -7.45737         1.47552
H          9.30723        -5.45557         1.13560
H         10.64004        -3.37517         1.01473
