         324
 CSIRO Nanostructure Databank - Neutral Graphene Oxide Data Set
C          1.22687         3.48679        -1.26692
C          0.05788         4.17659        -1.13060
C          1.19880         6.28583        -0.62416
C          0.04300         5.56240        -0.76004
C          1.19421         7.69595        -0.21525
C         -0.06625         8.36561         0.06538
C          1.04839        10.50850         0.48024
C         -0.13430         9.71046         0.28661
C          1.04984        11.90193         0.41343
C         -0.08867        12.65931        -0.02387
C          1.14504        14.78926         0.12327
C         -0.04643        14.01893        -0.16017
C          1.14613        16.24943        -0.05344
C         -0.04289        16.98356        -0.26336
C          1.18286        19.10549        -0.34731
C         -0.02189        18.36227        -0.41001
C          1.19530        20.54464        -0.51180
C          0.02342        21.26721        -0.92223
C          1.26402        23.39634        -0.95787
C          0.04281        22.61120        -1.15596
C          1.26040        24.90998        -1.07652
C          0.04667        25.71543        -1.35197
C          1.31905        27.79403        -0.95938
C          0.10123        27.06688        -1.29554
C          1.37490        29.22243        -1.12940
C          3.62649         3.29829        -1.14150
C          2.51263         4.10037        -1.02849
C          3.70186         6.39101        -0.43135
C          2.51803         5.63756        -1.02754
C          3.67914         7.89147        -0.58482
C          2.35745         8.43354        -0.08986
C          3.58945        10.49897         0.90637
C          2.31970         9.75436         0.59149
C          3.50167        11.95874         1.26987
C          2.22270        12.68243         0.88446
C          3.50245        14.88877         0.91867
C          2.26466        14.13063         0.60127
C          3.61725        16.22027         0.23447
C          2.36111        16.96948         0.00298
C          3.66307        19.08537        -0.06820
C          2.39573        18.37718        -0.12640
C          3.61664        20.56173         0.10231
C          2.38001        21.29236        -0.24090
C          3.62050        23.43669        -0.05911
C          2.41038        22.69326        -0.33431
C          3.51438        24.90000         0.18022
C          2.32233        25.64600        -0.30878
C          3.65692        27.79589        -0.12717
C          2.42832        27.11237        -0.47986
C          3.71435        29.22909        -0.41074
C          2.53127        29.90300        -0.88001
C          6.19799         3.58334        -1.15150
C          4.93536         3.72500        -0.67517
C          6.13823         6.45075         0.03287
C          4.83505         5.81414         0.05718
C          6.09717         7.90683         0.08948
C          4.89976         8.57849        -0.01040
C          6.10334        10.73853         0.62301
C          4.83159        10.08460         0.11593
C          6.08345        12.03496         1.07512
C          4.82145        12.68405         1.63028
C          6.07349        14.97145         1.43584
C          4.75333        14.21225         1.40701
C          6.08930        16.41653         0.99540
C          4.91004        16.96623         0.24406
C          6.16201        19.13045        -0.24638
C          4.87191        18.43447         0.02916
C          6.17944        20.66168        -0.28319
C          4.90782        21.34438         0.12240
C          6.11904        23.61349         0.02485
C          4.84415        22.81173         0.02911
C          6.01574        24.91713         0.80036
C          4.72963        25.67250         0.62422
C          5.97113        27.95310         0.87219
C          4.75756        27.13722         0.41301
C          6.11563        29.24809         0.09701
C          4.91895        29.90480        -0.32923
C          8.55508         3.62786        -0.54817
C          7.35329         4.27615        -0.53697
C          8.58818         6.40459        -0.12823
C          7.31009         5.70167        -0.12524
C          8.56868         7.88794        -0.19735
C          7.34421         8.64769         0.15675
C          8.61759        10.74645         0.50260
C          7.34290        10.00638         0.39630
C          8.64277        12.02204         1.28064
C          7.34664        12.72628         1.48813
C          8.65046        14.93705         1.14483
C          7.38668        14.23613         1.54123
C          8.66992        16.30214         0.82166
C          7.41113        17.10721         0.78002
C          8.61118        18.79839        -0.50121
C          7.41832        18.35605        -0.03224
C          8.67774        20.94559        -0.43278
C          7.41504        21.48134        -0.11565
C          8.60307        23.50965         0.56726
C          7.37430        22.82112         0.30401
C          8.57846        24.90774         0.83897
C          7.31855        25.64128         0.99390
C          8.58312        27.82469         0.61761
C          7.30538        27.17275         0.96687
C          8.58850        29.18624         0.19946
C          7.33681        29.84988        -0.07928
C         11.06461         3.55182        -0.35819
C          9.79022         4.23717         0.05699
C         11.08836         6.40898        -0.23641
C          9.79977         5.73528        -0.16359
C         11.14892         7.83748        -0.04265
C          9.89245         8.60149        -0.15203
C         11.14652        10.54907         0.92060
C          9.90669        10.03171         0.27217
C         11.15782        12.03788         1.26249
C          9.90097        12.79404         1.17362
C         11.12972        14.87938         0.89030
C          9.88839        14.19325         1.07870
C         11.14374        16.26212         0.62065
C          9.90176        16.91405         0.43683
C         11.18106        19.13285        -0.03691
C          9.92489        18.23399        -0.18925
C         11.12789        20.63026         0.10721
C          9.89392        21.43615         0.10166
C         11.07582        23.42299         1.04799
C          9.83415        22.76022         0.61053
C         11.12255        24.92192         1.14927
C          9.79732        25.67786         1.12509
C         11.03584        27.78847         0.59550
C          9.80892        27.12579         0.77092
C         11.03921        29.18193         0.26295
C          9.80604        29.84953         0.04066
C         13.50062         3.47205        -0.90383
C         12.23903         4.22165        -0.50699
C         13.55995         6.35490        -0.50009
C         12.26612         5.66691        -0.40232
C         13.60453         7.81524        -0.10662
C         12.34746         8.50484         0.20028
C         13.61675        10.57035         0.80909
C         12.41615         9.88468         0.61498
C         13.64586        12.00488         0.95415
C         12.43884        12.70362         1.05118
C         13.71298        14.87912         0.85971
C         12.38361        14.12663         0.76059
C         13.59703        16.34518         1.10606
C         12.37024        17.03645         0.63536
C         13.61809        19.16396         0.60397
C         12.37898        18.42397         0.50803
C         13.59489        20.57772         0.42948
C         12.32747        21.27036         0.38476
C         13.58971        23.47082         0.49979
C         12.37073        22.69532         0.78543
C         13.53675        24.91485         0.47417
C         12.34799        25.61958         0.77041
C         13.55108        27.79293         0.32892
C         12.35487        27.12006         0.95547
C         13.50735        29.20250         0.09370
C         12.25776        29.88100         0.10835
C         16.01147         3.51138        -0.77506
C         14.80414         4.21089        -0.65928
C         16.06403         6.29851        -0.28745
C         14.82999         5.59981        -0.43363
C         16.12865         7.69104         0.07206
C         14.87314         8.36099         0.43998
C         16.16989        10.53868         0.74553
C         14.88847         9.82477         0.83382
C         16.17110        11.97156         0.89597
C         14.92444        12.71687         0.99114
C         16.18279        14.85295         1.41527
C         14.92840        14.11073         1.15569
C         16.19966        16.38300         1.32578
C         14.88942        17.12179         1.24004
C         16.08602        19.19783         0.56843
C         14.86314        18.52005         0.80298
C         16.05368        20.61019         0.33969
C         14.80746        21.30676         0.38542
C         16.00856        23.43870         0.04966
C         14.79040        22.75218         0.29217
C         15.93440        24.88734        -0.20800
C         14.72354        25.63913         0.13599
C         15.95452        27.78928        -0.22451
C         14.73958        27.06952         0.07839
C         15.92290        29.21624        -0.36365
C         14.68831        29.89519        -0.24529
C         18.48857         3.47762        -0.89789
C         17.25190         4.17891        -0.69952
C         18.53108         6.27926        -0.37218
C         17.28521         5.58175        -0.44271
C         18.57745         7.67683        -0.06691
C         17.34155         8.38349         0.22979
C         18.63478        10.51567         0.65858
C         17.34676         9.79661         0.56521
C         18.62878        11.99499         0.60727
C         17.40597        12.66872         0.85624
C         18.71662        14.89775         0.80992
C         17.45927        14.10118         1.19297
C         18.59829        16.35745         0.56249
C         17.40896        17.07363         0.81065
C         18.51583        19.18148         0.13468
C         17.33182        18.47473         0.51245
C         18.49647        20.60898        -0.02507
C         17.26604        21.32113         0.09667
C         18.48180        23.44653        -0.23189
C         17.23909        22.74569        -0.06024
C         18.49231        24.92051        -0.11645
C         17.22107        25.64817        -0.37557
C         18.39654        27.82582        -0.53858
C         17.21277        27.12596        -0.30675
C         18.33500        29.22963        -0.84582
C         17.10899        29.90822        -0.71200
C         19.68099         4.14646        -0.87633
C         20.96530         6.24911        -0.62481
C         19.73633         5.55870        -0.62446
C         21.00252         7.61420        -0.37399
C         19.82906         8.33590        -0.08309
C         21.01446        10.60385        -0.22434
C         19.91797         9.77340         0.28696
C         20.97246        11.95911        -0.16717
C         19.81522        12.70537         0.27861
C         20.85172        14.87278        -0.41505
C         19.81813        14.13692         0.19256
C         20.83324        16.26177        -0.45405
C         19.73164        17.02444         0.00749
C         20.89822        19.18968        -0.41868
C         19.72574        18.46413        -0.09524
C         20.89337        20.56943        -0.49741
C         19.70447        21.31501        -0.31077
C         20.91148        23.51778        -0.58798
C         19.69438        22.76186        -0.36020
C         20.96531        24.87546        -0.58546
C         19.78937        25.68855        -0.24417
C         20.68095        27.74577        -1.51393
C         19.78591        27.21220        -0.42774
C         20.55913        29.06456        -1.87718
C         19.47057        29.85327        -1.43731
O          3.83246        14.86338         2.34956
O         10.49069        25.39469         2.40322
O         10.84380        18.48048        -1.30675
O          4.53478        16.15699        -0.92958
O         16.50911        25.19550        -1.56857
O          3.03748         9.62352         1.91173
O          6.73735        14.80234         2.71972
O          2.38406        25.20337         1.08874
O         13.15186        14.51657        -0.44301
O          5.14950        25.08298         1.93230
O          8.69202        19.90085        -1.35907
O         14.83349         8.74288         1.84573
O          2.52199        12.27503         2.28623
O          4.81311         4.49493         0.50583
O         13.66006         7.42698        -1.51782
O         11.80944        22.81946         2.15879
O          6.63942        17.28689         2.02001
O          4.28429        20.89778         1.37807
O         19.21100        25.37371         1.08091
O          9.21034         8.39537        -1.42872
O          1.73089        24.13034        -2.21590
O         11.07130        10.98847         2.30185
O          6.07762        19.88848        -1.51234
O         14.04066        16.82978         2.40104
O          7.36312        26.44348         2.22797
O         19.55892        10.00249         1.68704
O         16.29000        15.68885         2.60596
O          8.02057        12.03035         2.60079
O         18.46334        14.44463         2.18223
O          9.36752        10.92903        -0.75482
O          4.62452        10.66998        -1.21149
H          4.21116         9.97561        -1.78609
O          6.31034        24.10216        -1.35694
H          6.37541        23.32236        -1.94998
O         13.42129         3.15682        -2.30970
H         13.40799         3.99965        -2.80891
O         12.49876        27.33045         2.41278
H         11.79692        26.77462         2.83593
O          2.61693         5.88308        -2.47712
H          2.58239         6.86099        -2.60989
O          9.69796         4.03745         1.51655
H          8.80565         4.33399         1.79686
O          4.98066        12.50077         3.04944
H          4.23963        12.98128         3.48296
O          3.72433         8.25385        -2.04030
H          4.54098         7.85072        -2.41008
O          5.65436        28.36798         2.22886
H          5.83140        27.58878         2.80655
O         20.34023        27.74410         0.82334
H         19.93715        27.21470         1.54903
H          1.20434         2.40882        -1.48786
H         -0.90342         3.66202        -1.26744
H         -0.93826         6.01815        -0.57038
H         -1.00384         7.79922         0.00034
H         -1.12006        10.18716         0.38330
H         -1.00889        12.12480        -0.29823
H         -0.93932        14.53718        -0.53357
H         -1.01188        16.46861        -0.30134
H         -0.97816        18.88046        -0.55957
H         -0.91246        20.72036        -1.09970
H         -0.85939        23.11469        -1.52978
H         -0.87342        25.21025        -1.67864
H         -0.78954        27.66025        -1.55069
H          0.47941        29.74995        -1.48761
H          3.48994         2.25398        -1.46972
H          2.58361        30.98926        -1.04325
H          6.40118         2.93111        -2.01304
H          4.98403        30.94610        -0.68013
H          8.60741         2.59310        -0.91950
H          7.37857        30.85863        -0.51842
H         11.04310         2.45575        -0.45892
H          9.81439        30.91145        -0.24481
H         13.52875         2.48984        -0.36644
H         12.23248        30.95562        -0.12391
H         15.99281         2.43037        -0.97674
H         14.64848        30.98123        -0.41499
H         18.45864         2.39506        -1.08780
H         17.05925        30.98706        -0.92198
H         20.62398         3.60789        -1.04978
H         21.89684         5.69927        -0.81997
H         21.97329         8.12834        -0.36552
H         21.87933        10.11497        -0.69497
H         21.84534        12.51524        -0.53379
H         21.71068        14.35853        -0.86535
H         21.68644        16.77258        -0.91874
H         21.84706        18.66018        -0.57501
H         21.83911        21.08130        -0.71697
H         21.83480        22.96880        -0.81742
H         21.90626        25.38083        -0.84599
H         21.52312        27.14420        -1.88404
H         21.30327        29.51662        -2.54969
H         19.41917        30.91719        -1.70871
