         324
 CSIRO Nanostructure Databank - Neutral Graphene Oxide Data Set
C          1.22445         3.23503         0.17288
C          0.02907         3.93838        -0.13169
C          1.09483         6.13683         0.23207
C         -0.04235         5.31082        -0.18540
C          1.12478         7.62429         0.03870
C         -0.11421         8.36569         0.06574
C          1.03855        10.52930         0.19852
C         -0.15314         9.73511         0.15661
C          1.04643        11.92690         0.33654
C         -0.14438        12.70902         0.23828
C          1.11207        14.81907         0.42585
C         -0.10963        14.08067         0.28978
C          1.06844        16.30049         0.46066
C         -0.01024        17.04779        -0.21284
C          1.24444        19.16428        -0.17728
C          0.06195        18.38731        -0.44529
C          1.32068        20.55367        -0.35967
C          0.30958        21.26720        -1.12032
C          1.25989        23.47161        -0.57294
C          0.33875        22.60493        -1.33375
C          1.42779        24.91753        -0.89760
C          0.42428        25.58018        -1.62310
C          1.56741        27.70765        -1.38211
C          0.49976        26.94268        -1.88959
C          1.69144        29.10913        -1.74123
C          3.68022         3.24163         0.51292
C          2.44678         3.90528         0.31556
C          3.70379         6.12939         0.19981
C          2.41410         5.38626         0.40371
C          3.64050         7.63203         0.03428
C          2.31804         8.31429         0.00234
C          3.60127        10.54703         0.16289
C          2.31018         9.80105        -0.02417
C          3.61666        11.95715         0.66643
C          2.29533        12.67654         0.66111
C          3.60325        14.85280         0.63980
C          2.32473        14.15461         0.56995
C          3.64631        16.26279         0.73774
C          2.37638        17.02567         0.69368
C          3.72111        19.18114         0.50942
C          2.46282        18.42782         0.19288
C          3.61720        20.64721         0.57610
C          2.46888        21.29121         0.12159
C          3.55729        23.57047         0.60637
C          2.35878        22.77138         0.18449
C          3.66930        25.00582         0.24570
C          2.54383        25.65696        -0.40847
C          3.61558        27.87513         0.02501
C          2.57060        27.06365        -0.61937
C          3.72786        29.35493        -0.38130
C          2.74035        29.86789        -1.34676
C          6.19642         3.32423         0.51749
C          4.92129         3.92891         0.38082
C          6.05193         5.74178        -0.70930
C          4.88666         5.27278        -0.11033
C          6.00771         7.94746        -0.81965
C          4.83937         8.44992        -0.30563
C          6.15998        10.59337         0.13323
C          4.88149         9.79718         0.27284
C          6.04183        12.05847         0.09158
C          4.87652        12.71979         0.44758
C          6.08998        14.87926         0.51165
C          4.84345        14.15443         0.52257
C          6.10003        16.29244         0.80455
C          4.88033        16.97000         0.88334
C          6.11624        19.22458         1.23849
C          4.77857        18.43239         1.35573
C          6.02703        20.66890         0.91992
C          4.83662        21.35862         0.88599
C          6.08096        23.59914         1.17273
C          4.79654        22.83782         1.01643
C          6.08774        25.05306         0.91215
C          4.85005        25.69790         0.53968
C          6.14858        27.93316         0.64673
C          4.82807        27.17834         0.56021
C          6.18832        29.32199         0.11589
C          5.05144        29.97475        -0.33261
C          8.63728         3.34837         0.64628
C          7.40792         3.98672         0.21218
C          8.49988         6.19050        -0.65673
C          7.36000         5.27072        -0.45641
C          8.49843         7.67810        -0.71477
C          7.30703         8.49975        -0.64085
C          8.53209        10.61378        -0.66131
C          7.37393         9.90980        -0.37903
C          8.47478        12.07842        -0.81393
C          7.20050        12.83367        -0.37171
C          8.58770        14.85728         0.23342
C          7.27459        14.21892         0.10539
C          8.68591        16.27118         0.79028
C          7.40018        16.94698         1.29645
C          8.62207        19.16590         0.54600
C          7.44020        18.48228         1.11781
C          8.58180        20.64360         0.41555
C          7.29855        21.38523         0.68198
C          8.63982        23.53058         0.91263
C          7.38146        22.81445         1.09179
C          8.59218        24.98299         1.14320
C          7.32017        25.74045         0.93647
C          8.63680        27.82182         0.50906
C          7.40743        27.14922         0.69634
C          8.65567        29.24877         0.20975
C          7.45261        29.95069         0.00841
C         11.16224         3.27221         0.47813
C          9.84011         3.57519         0.02230
C         11.02991         6.17558        -0.44496
C          9.74220         5.57584        -0.77324
C         10.98831         7.70006        -0.53855
C          9.71372         8.37514        -0.80424
C         11.03560        10.58878        -1.09155
C          9.70073         9.82957        -1.26838
C         11.05510        12.12457        -0.97859
C          9.75180        12.86927        -0.92999
C         11.07211        14.97861        -0.21713
C          9.77620        14.30790        -0.49095
C         11.08553        16.36210         0.06097
C          9.86970        17.05508         0.38054
C         11.05410        19.20355        -0.07179
C          9.80884        18.46954         0.29139
C         11.07107        20.72797         0.09905
C          9.83783        21.41581         0.48914
C         11.11585        23.53006         0.63739
C          9.84269        22.81470         0.69499
C         11.13430        24.93248         0.67965
C          9.91338        25.71830         0.95851
C         11.10491        27.78734         0.29757
C          9.89008        27.13764         0.56599
C         11.12052        29.22256         0.03875
C          9.88038        29.91655         0.04141
C         13.53808         3.46424         0.60345
C         12.29873         4.02196         0.18580
C         13.55204         6.20608        -0.18166
C         12.32853         5.35867        -0.58781
C         13.57368         7.64810        -0.56568
C         12.27200         8.40040        -0.83350
C         13.46160        10.56756        -0.39674
C         12.24477         9.85670        -0.73576
C         13.48927        12.09286        -0.30066
C         12.25944        12.84472        -0.54548
C         13.54911        14.93808        -0.27324
C         12.28431        14.24438        -0.35294
C         13.54731        16.34628        -0.20424
C         12.34366        17.07222        -0.02873
C         13.56509        19.23849         0.05225
C         12.35218        18.50428         0.00108
C         13.57045        20.67503         0.23611
C         12.36138        21.39941         0.30638
C         13.58554        23.52146         0.55552
C         12.34842        22.81112         0.50254
C         13.57373        24.93125         0.61513
C         12.36063        25.64214         0.57666
C         13.56735        27.75351         0.14904
C         12.35273        27.08132         0.37674
C         13.57687        29.12722        -0.47983
C         12.31035        29.88164        -0.23470
C         15.97028         3.56546         0.93212
C         14.73633         4.18093         0.60539
C         15.90776         6.38111         0.64802
C         14.68292         5.61046         0.31493
C         15.95629         7.85460         0.27978
C         14.76479         8.47419        -0.31561
C         15.96865        10.61994        -0.45439
C         14.76213         9.86896        -0.46477
C         15.99968        12.04089        -0.51659
C         14.77946        12.78403        -0.43816
C         16.04120        14.87302        -0.47926
C         14.78588        14.18830        -0.42027
C         16.01720        16.26864         0.11955
C         14.84508        17.09046        -0.45552
C         16.02107        19.22981         0.17147
C         14.82316        18.54164         0.00735
C         16.05602        20.66298         0.30906
C         14.82154        21.38005         0.36436
C         16.07352        23.50425         0.53391
C         14.83108        22.79720         0.49775
C         16.09843        24.94669         0.57743
C         14.83208        25.69429         0.90715
C         16.00831        27.81574         0.29452
C         14.80668        27.10258         0.36424
C         15.99199        29.26704         0.15828
C         14.80119        29.91497        -0.13051
C         18.43837         3.60498         1.16751
C         17.18931         4.26816         0.93929
C         18.40369         6.41068         0.70529
C         17.19768         5.68913         0.75547
C         18.42931         7.82477         0.35194
C         17.24709         8.49214         0.07299
C         18.45925        10.64033        -0.22401
C         17.24497         9.82599        -0.64328
C         18.42185        11.97536        -0.94950
C         17.23132        12.75431        -0.82655
C         18.40303        15.03751        -1.15345
C         17.21563        14.20504        -0.84636
C         18.48677        16.38446        -0.70106
C         17.35249        17.00854         0.02781
C         18.53052        19.28367        -0.19690
C         17.31840        18.50757         0.13123
C         18.55339        20.67241         0.07666
C         17.29798        21.37148         0.34702
C         18.55681        23.52913         0.62285
C         17.29208        22.78046         0.48364
C         18.55683        24.98959         0.44697
C         17.28227        25.66597         0.45690
C         18.45189        27.84465         0.39109
C         17.26788        27.12567         0.39756
C         18.43236        29.29056         0.50088
C         17.21130        29.97589         0.36922
C         19.61857         4.30461         1.14104
C         20.86285         6.39744         0.69123
C         19.64169         5.70743         0.86285
C         20.89321         7.72824         0.28996
C         19.70930         8.47138         0.09591
C         20.81780        10.35007        -1.08026
C         19.72529         9.81735        -0.39966
C         20.70790        11.55774        -1.79014
C         19.52524        12.30870        -1.74596
C         20.54044        15.39489        -2.34329
C         19.43794        14.60061        -2.01027
C         20.63946        16.67529        -1.82681
C         19.61188        17.18977        -1.01258
C         20.90341        19.30752        -0.69164
C         19.68924        18.59677        -0.60652
C         20.95016        20.65834        -0.38265
C         19.79106        21.35933        -0.01202
C         21.01438        23.61098        -0.06801
C         19.88459        22.78876         0.36057
C         20.96743        24.97218         0.02225
C         19.75418        25.67924         0.30514
C         20.88844        27.87255         0.90619
C         19.78207        27.18135         0.14972
C         20.81350        29.22326         1.12307
C         19.63760        29.95982         0.82287
O          7.01944        19.11975         2.37203
O          3.84145        23.30362         2.02600
O          9.37364        25.45122         2.29840
O         13.34959        11.26984         0.92321
O         10.99794         6.99496         0.76163
O         15.69834         7.40633         1.67132
O          1.63803         5.80398         1.56120
O         19.40538        13.36265        -2.65880
O          1.15332        23.23402         0.87848
O         17.65158        17.64412         1.31425
O          9.62588        13.95743        -1.90275
O          5.92839         6.80052        -1.60710
O          2.93062        12.17715         1.92011
O          3.05743        10.39752        -1.18872
O          6.77171        23.15144         2.38092
O          1.44121        16.84542         1.78582
O          3.53694        18.60397        -0.81752
O          3.94550         7.00436         1.36089
O         10.93705        20.07768        -1.23627
O          5.30036        27.73664         1.82069
O         19.40956        23.06135         1.71700
O         13.05039         7.84979        -1.95131
O          9.77114         4.25575        -1.22063
O          4.41599        18.43491         2.68426
O          7.71954        21.16035        -0.71274
O          9.00461        15.11914         1.62390
O          3.13089        28.93308         0.89344
O         11.28612        11.45643        -2.28141
O          7.49557        12.54834        -1.79868
O          5.69907        10.03244         1.44031
O          9.40758         9.78674        -2.68778
H          9.77237        10.61311        -3.08543
O         18.30480        10.89846         1.19549
H         19.07759        11.41470         1.50399
O         12.45411         5.04899        -1.99117
H         13.25127         4.49445        -2.11662
O         15.04630        17.13864        -1.89865
H         14.27171        17.58595        -2.30047
O         17.35801         9.54096        -2.06740
H         16.51441         9.14505        -2.37206
O         14.84154        25.83654         2.37789
H         15.65719        26.32522         2.62004
O          7.37255        16.67941         2.71249
H          6.69519        17.27212         3.11467
O         15.71652        16.04006         1.51403
H         16.32924        16.61114         2.03858
O         13.63992        28.88260        -1.95445
H         12.85202        28.34622        -2.18806
O         20.08834        27.41630        -1.27895
H         20.07900        28.38789        -1.41713
H          1.20849         2.13572         0.18113
H         -0.86357         3.35033        -0.39001
H         -0.95471         5.79491        -0.56213
H         -1.05947         7.80567         0.08059
H         -1.13181        10.22688         0.24592
H         -1.11098        12.20841         0.09061
H         -1.05473        14.63521         0.21433
H         -0.91579        16.50409        -0.51833
H         -0.81330        18.89071        -0.88006
H         -0.44378        20.67133        -1.65479
H         -0.37772        23.05452        -2.03511
H         -0.44471        25.01788        -1.98942
H         -0.28820        27.43318        -2.47801
H          0.94072        29.52302        -2.43063
H          3.68291         2.15274         0.67271
H          2.87172        30.88826        -1.73668
H          6.25045         2.30380         0.92446
H          5.16868        30.96451        -0.80111
H          8.59768         2.69732         1.53135
H          7.49614        31.00623        -0.29893
H         11.28509         2.40952         1.15248
H          9.87474        30.99672        -0.16649
H         13.54537         2.42199         0.95684
H         12.29564        30.96429        -0.43125
H         15.97530         2.48699         1.14820
H         14.77240        31.01191        -0.20835
H         18.43813         2.52030         1.34714
H         17.19732        31.07537         0.40239
H         20.57442         3.78288         1.29547
H         21.80730         5.85338         0.83758
H         21.86799         8.21196         0.13605
H         21.74219         9.76409        -1.18408
H         21.52111        11.88023        -2.45269
H         21.30288        14.99755        -3.02483
H         21.49711        17.29857        -2.10740
H         21.83720        18.79534        -0.95595
H         21.91846        21.17479        -0.41321
H         21.90355        23.13064        -0.49891
H         21.84832        25.56081        -0.27110
H         21.80919        27.32083         1.14425
H         21.67272        29.75697         1.55568
H         19.62848        31.05025         0.95999
