         204
 CSIRO Nanostructure Databank - Neutral Graphene Oxide Data Set
C        -11.06442         0.68062         0.64596
C         -9.84164         1.42824         0.48293
C         -8.61941         0.69255         0.31379
C         -7.38489         1.40039         0.20502
C         -6.16269         0.65451         0.08081
C         -4.83928         1.36945         0.20517
C         -3.73709         0.68644        -0.58123
C         -2.47765         1.45026        -0.91664
C         -1.20657         0.71491        -0.92129
C         -0.00528         1.40786        -0.84725
C          1.22202         0.68926        -0.74590
C          2.50443         1.46496        -0.89274
C          3.73735         0.69509        -0.47689
C          4.92150         1.37542        -0.19798
C          6.16640         0.68280        -0.05660
C          7.41102         1.38326         0.01630
C          8.63394         0.69683         0.09444
C          9.88386         1.42832         0.24263
C         11.09432         0.65407         0.42181
C         -9.81147         2.82723         0.47814
C         -8.58681         3.54536         0.40588
C         -7.35640         2.81016         0.33572
C         -6.10215         3.52120         0.23110
C         -4.93486         2.84588        -0.02914
C         -3.74631         3.58872        -0.49019
C         -2.45328         2.90807        -0.69195
C         -1.27161         3.61100        -0.74073
C          0.03703         2.91912        -1.09060
C          1.24101         3.60536        -0.46460
C          2.44836         2.88545        -0.35115
C          3.63472         3.57444        -0.04387
C          4.87674         2.81087         0.14181
C          6.17225         3.57182         0.24558
C          7.41253         2.84681        -0.12241
C          8.73446         3.62402         0.01780
C          9.91942         2.81146         0.28774
C         -8.56289         4.96736         0.30101
C         -7.36675         5.70431         0.33001
C         -6.12317         4.95022         0.76192
C         -4.77213         5.72795         0.61822
C         -3.73005         5.06814        -0.26667
C         -2.42153         5.75268        -0.29317
C         -1.26165         5.04273        -0.55554
C          0.03207         5.77172        -0.80141
C          1.24795         5.00578        -0.33660
C          2.45221         5.71217        -0.08827
C          3.66663         4.98891         0.07213
C          4.92152         5.71145         0.19041
C          6.15699         5.03916         0.19014
C          7.40811         5.73995         0.30238
C          8.62911         5.03955         0.37127
C         -7.34433         7.10286         0.21125
C         -6.13104         7.84635         0.15937
C         -4.88874         7.17717         0.19974
C         -3.67316         7.88077         0.00117
C         -2.43509         7.18321        -0.14618
C         -1.20920         7.90482        -0.20994
C          0.01449         7.20835        -0.34770
C          1.23262         7.88765        -0.14429
C          2.46141         7.15688        -0.04984
C          3.67894         7.85316         0.14762
C          4.90963         7.14041         0.23992
C          6.14836         7.85240         0.38589
C          7.35965         7.16160         0.43260
C         -6.12859         9.27990         0.01930
C         -4.95712         9.98652        -0.04252
C         -3.68155         9.32099        -0.05009
C         -2.47053        10.02082        -0.05859
C         -1.22085         9.34066        -0.07474
C          0.01027        10.02340         0.00387
C          1.23009         9.32017         0.02638
C          2.47359         9.99367         0.19280
C          3.67491         9.29339         0.24291
C          4.93362         9.97762         0.41270
C          6.11039         9.29382         0.47648
C        -11.06830        -0.68524         0.67480
C         -9.85369        -1.44845         0.50623
C         -8.62894        -0.72475         0.29549
C         -7.41309        -1.44665         0.08626
C         -6.16884        -0.72249         0.00766
C         -4.87311        -1.49302         0.14926
C         -3.64078        -0.77189        -0.36547
C         -2.48636        -1.45823        -0.58389
C         -1.24835        -0.77733        -1.14265
C          0.02452        -1.47650        -0.72857
C          1.23825        -0.73558        -0.65767
C          2.47894        -1.44593        -0.49210
C          3.71980        -0.72943        -0.42467
C          4.93745        -1.43989        -0.21658
C          6.17072        -0.73676        -0.09527
C          7.40690        -1.44503         0.03226
C          8.63352        -0.73342         0.13612
C          9.85888        -1.45780         0.28658
C         11.08577        -0.70867         0.42558
C         -9.83455        -2.84299         0.57347
C         -8.63267        -3.57863         0.33276
C         -7.44263        -2.85343         0.02014
C         -6.26654        -3.59514        -0.45275
C         -4.93948        -2.86020        -0.49396
C         -3.67788        -3.63971        -0.47711
C         -2.45963        -2.91608        -0.48129
C         -1.23408        -3.60885        -0.49993
C          0.01746        -2.87317        -0.53899
C          1.24131        -3.58168        -0.36095
C          2.47418        -2.86273        -0.35635
C          3.70546        -3.57653        -0.18201
C          4.93446        -2.86774        -0.13051
C          6.16355        -3.57458         0.02494
C          7.40208        -2.86849         0.08223
C          8.63110        -3.58342         0.22681
C          9.84316        -2.85828         0.32008
C         -8.57102        -4.98627         0.39976
C         -7.38444        -5.73132         0.08736
C         -6.23679        -5.05066        -0.39552
C         -4.99091        -5.74540        -0.92084
C         -3.69699        -5.03723        -0.54772
C         -2.47441        -5.74898        -0.46223
C         -1.23876        -5.03148        -0.40777
C         -0.00074        -5.73539        -0.27929
C          1.23596        -5.01153        -0.21662
C          2.45249        -5.71135        -0.02877
C          3.69976        -4.99359         0.00037
C          4.91925        -5.68180         0.19576
C          6.14956        -4.99256         0.16342
C          7.40120        -5.71200         0.25853
C          8.59967        -5.01144         0.27869
C         -7.36559        -7.13721         0.28753
C         -6.25140        -7.96357        -0.12620
C         -4.96152        -7.24828        -0.63872
C         -3.69224        -7.91937        -0.37415
C         -2.47111        -7.19024        -0.36452
C         -1.23794        -7.87854        -0.22357
C         -0.00301        -7.15792        -0.19518
C          1.22640        -7.86487        -0.05505
C          2.45355        -7.14813         0.06214
C          3.65947        -7.85920         0.25443
C          4.90623        -7.11798         0.64771
C          6.18802        -7.85537         0.33741
C          7.36607        -7.16126         0.26022
C         -6.09232        -9.32221         0.41994
C         -4.91592        -9.98395         0.31609
C         -3.68243        -9.31855        -0.07154
C         -2.46747        -9.99748         0.02105
C         -1.22666        -9.31096        -0.09332
C         -0.00052        -9.99628        -0.00865
C          1.23137        -9.29817         0.00881
C          2.46966        -9.98165         0.10453
C          3.67419        -9.27528         0.22834
C          4.95080        -9.97156         0.28899
C          6.13471        -9.30001         0.29583
O          8.08217         3.33983        -1.30077
O         -3.48822         1.07045        -1.95558
O         -5.69652        -2.96910        -1.70371
O         -4.13377         4.56055        -1.56421
O          0.31003         3.10187        -2.48879
O         -4.41973         1.18991         1.61535
H         -4.97146         1.79511         2.15996
O          4.85279        -7.05264         2.12823
H          5.66348        -6.58505         2.42341
O         -6.35955         4.68546         2.13711
O         -4.16429         5.77105         1.93233
H         -4.89245         5.42191         2.53284
O          5.52730         3.04417         1.45543
O         -4.67562        -1.69882         1.57827
H         -4.55586        -0.79945         1.97116
O         -5.05949        -5.61041        -2.37408
H         -5.66009        -6.32578        -2.68821
O         -1.34902        -0.93722        -2.60056
H         -2.07175        -0.33876        -2.90157
O          0.16753         5.80116        -2.26504
H          0.21303         4.83222        -2.55707
O         -5.86261        -7.92972        -1.55999
O          2.59321         1.65391        -2.34737
H          1.77455         2.19721        -2.60672
H         12.02631        -1.26582         0.54843
H         12.04286         1.19887         0.53851
H         10.85582         3.32109         0.56166
H          9.54406         5.58413         0.64945
H          8.30061         7.72103         0.54081
H          7.06092         9.83369         0.59816
H          4.92513        11.07516         0.48506
H          2.47839        11.08935         0.29417
H          0.01823        11.12056         0.08545
H         -2.47900        11.12093        -0.03222
H         -4.97806        11.08459        -0.10358
H         -7.09367         9.80730        -0.00327
H         -8.29833         7.65006         0.13273
H         -9.51720         5.49558         0.13777
H        -10.75543         3.38767         0.55873
H        -12.00525         1.23694         0.77053
H        -12.01205        -1.23096         0.82161
H        -10.76358        -3.39227         0.78705
H         -9.47191        -5.54710         0.68892
H         -8.16303        -7.59811         0.88795
H         -6.97058        -9.80842         0.87001
H         -4.83818       -11.02359         0.66809
H         -2.46358       -11.07746         0.23099
H          0.00069       -11.09331         0.07424
H          2.47907       -11.08176         0.10796
H          4.94021       -11.07113         0.26102
H          7.08488        -9.85407         0.25448
H          8.31838        -7.70468         0.15667
H          9.55002        -5.56204         0.34686
H         10.78947        -3.40722         0.43875
