         426
 CSIRO Nanostructure Databank - Neutral Graphene Oxide Data Set
C         27.96095        27.30404        -0.76151
C         27.93229        28.75652        -0.71822
C         26.71559        29.45879        -0.65938
C         27.90154        31.56375        -0.31347
C         26.70263        30.84103        -0.51596
C         27.89970        33.03098        -0.19319
C         26.68523        33.76886        -0.21136
C         27.89491        35.88460        -0.09500
C         26.68338        35.14411        -0.12628
C         27.90602        37.32152        -0.06382
C         26.68242        38.06514         0.15808
C         27.82232        40.23172        -0.09881
C         26.64414        39.41802         0.23211
C         27.88896        41.66557         0.26194
C         26.69843        42.37639         0.51400
C         27.95128        44.43900         0.76661
C         26.71712        43.74019         0.74223
C         27.96737        45.86015         0.86467
C         30.40438        27.33415        -1.20767
C         29.11829        26.62114        -0.87487
C         30.41987        28.77142        -0.74504
C         29.15215        29.47453        -0.61226
C         30.41706        31.49297         0.13517
C         29.11976        30.85607        -0.31647
C         30.37858        33.01853         0.12144
C         29.10647        33.73941        -0.12136
C         30.36485        35.89668        -0.20815
C         29.13139        35.17163        -0.14233
C         30.37264        37.29756        -0.16201
C         29.13067        38.00648        -0.11991
C         30.40188        40.20721        -0.04932
C         29.13768        39.47352        -0.25097
C         30.39477        41.59471         0.13938
C         29.14838        42.33374         0.31664
C         30.45182        44.46120         0.90564
C         29.16877        43.71902         0.60274
C         30.37622        45.92247         0.53752
C         29.15885        46.56992         0.62899
C         32.95090        24.50691        -0.92952
C         31.72212        25.20376        -0.98156
C         32.85461        27.31298        -0.54938
C         31.66779        26.58935        -0.83203
C         32.87994        28.72814        -0.60503
C         31.62087        29.44360        -0.67912
C         32.89036        31.63600        -0.44380
C         31.57419        30.95671        -0.73097
C         32.91851        32.99100        -0.26981
C         31.66009        33.75347        -0.04852
C         32.90955        35.90266        -0.28612
C         31.62843        35.16258        -0.59639
C         32.89088        37.30648        -0.16754
C         31.62881        38.04530        -0.17548
C         32.91354        40.19409        -0.26223
C         31.61573        39.44069        -0.10567
C         32.85328        41.62558         0.18313
C         31.66473        42.30894         0.25629
C         32.84236        44.47514         0.15844
C         31.68985        43.76705         0.40825
C         32.88587        45.91767         0.11786
C         31.58776        46.70834         0.09925
C         32.94100        48.64159         0.82341
C         31.78287        47.98037         0.90798
C         35.48045        23.07499        -0.90358
C         35.40744        24.45687        -0.60240
C         34.13718        25.14341        -0.60310
C         35.36722        27.30893        -0.16477
C         34.06702        26.55325        -0.06849
C         35.33691        28.75310        -0.24428
C         34.11840        29.42789        -0.49654
C         35.39747        31.62152        -0.39519
C         34.14782        30.89661        -0.82514
C         35.37341        33.02830        -0.37163
C         34.15495        33.74465        -0.32406
C         35.38274        35.88836        -0.12390
C         34.13094        35.17667        -0.25267
C         35.35851        37.31202         0.07006
C         34.12698        37.99051         0.05889
C         35.40718        40.18925         0.40053
C         34.09089        39.43822         0.30890
C         35.40794        41.63912         0.22856
C         34.12717        42.38201         0.50180
C         35.38568        44.49955         0.07096
C         34.11028        43.72938        -0.20561
C         35.36320        45.90791         0.09770
C         34.08509        46.59730         0.03357
C         35.36953        48.79489         0.16051
C         34.04363        48.10826        -0.06795
C         35.37834        50.19483         0.12391
C         37.88605        23.06543        -0.52714
C         36.68080        22.40028        -0.86642
C         37.84759        24.47026        -0.26617
C         36.60854        25.16024        -0.30482
C         37.81221        27.28920         0.15034
C         36.57192        26.60351        -0.10831
C         37.73047        28.73972         0.41973
C         36.54955        29.48879        -0.05264
C         37.84175        31.63892         0.09760
C         36.59462        30.90075        -0.12745
C         37.87801        33.03648        -0.07758
C         36.66281        33.76676        -0.58419
C         37.84591        35.91454        -0.10509
C         36.60963        35.20949        -0.17867
C         37.82874        37.32672        -0.07566
C         36.61268        38.03737         0.08257
C         37.87427        40.18910         0.10920
C         36.64432        39.45139         0.18069
C         37.85786        41.61954         0.22380
C         36.60686        42.33356         0.18091
C         37.82052        44.50270         0.36088
C         36.60025        43.79316         0.18456
C         37.79687        45.92210         0.40983
C         36.58646        46.62818         0.26555
C         37.81610        48.81334         0.34544
C         36.58137        48.08626         0.28209
C         37.79850        50.23759         0.28512
C         36.57847        50.90670         0.20530
C         40.36962        20.25954        -0.61402
C         39.18564        20.95163        -0.70376
C         40.31989        23.04089        -0.05398
C         39.12691        22.34826        -0.44190
C         40.26701        24.45721         0.20392
C         39.07087        25.16463         0.06785
C         40.26980        27.33201         0.47557
C         39.02235        26.60500         0.26762
C         40.26801        28.72804         0.60033
C         39.02207        29.49977         0.68429
C         40.26721        31.66548         0.48010
C         39.05045        30.95991         0.42873
C         40.31466        33.06498         0.26497
C         39.09279        33.76767         0.03703
C         40.33244        35.92729         0.01385
C         39.09430        35.19681        -0.05897
C         40.33032        37.31610        -0.09450
C         39.07827        38.05788        -0.45693
C         40.33257        40.20563         0.07792
C         39.10000        39.50453        -0.05193
C         40.29684        41.60276         0.38355
C         39.08227        42.33472         0.38358
C         40.27975        44.51221         0.54413
C         39.06918        43.78082         0.48696
C         40.31658        45.92533         0.47911
C         39.04840        46.66456         0.82096
C         40.29111        48.78560         0.21574
C         39.05853        48.11336         0.43297
C         40.30422        50.19363         0.04041
C         39.09488        51.00228         0.44869
C         40.21594        52.96756        -0.61104
C         39.08446        52.37983        -0.16658
C         42.80620        20.23003        -0.24709
C         41.56690        20.93370        -0.24838
C         42.78979        22.96434         0.58475
C         41.53349        22.31985         0.04105
C         42.79362        24.46233         0.43214
C         41.49197        25.14905         0.76621
C         42.76016        27.32154         0.51385
C         41.51365        26.62830         0.51356
C         42.79157        28.74119         0.62196
C         41.52358        29.43908         0.83596
C         42.81195        31.64673         0.62590
C         41.52131        30.96394         0.83073
C         42.80232        33.06885         0.47336
C         41.57051        33.77711         0.31337
C         42.81927        35.88868         0.23800
C         41.58793        35.19303         0.18252
C         42.82088        37.39973         0.28813
C         41.60800        38.05693        -0.38436
C         42.83106        40.20927         0.13960
C         41.58471        39.52726        -0.01716
C         42.83536        41.60629         0.43523
C         41.55894        42.27230         0.69709
C         42.82063        44.49710         0.51523
C         41.55091        43.80593         0.75288
C         42.79530        45.91820         0.25964
C         41.53900        46.62285         0.30059
C         42.73393        48.72177        -0.22103
C         41.52876        48.04540         0.11456
C         42.71912        50.12681        -0.48458
C         41.49466        50.85733        -0.34889
C         42.65813        52.89858        -1.04274
C         41.47392        52.25434        -0.65280
C         44.01110        20.91104        -0.14246
C         45.26396        23.04684         0.03813
C         44.05172        22.29352         0.10660
C         45.24872        24.46576         0.17401
C         43.98657        25.16499         0.33773
C         45.22733        27.32963         0.45113
C         44.00046        26.61263         0.41664
C         45.23284        28.74178         0.60553
C         44.01115        29.45792         0.66140
C         45.26538        31.62622         0.67012
C         44.00914        30.91691         0.67820
C         45.24662        33.04571         0.69300
C         44.04148        33.77938         0.54948
C         45.26796        35.97299         0.59783
C         44.03763        35.21682         0.46529
C         45.32727        37.34083         0.37305
C         44.12579        38.04204        -0.20910
C         45.29124        40.22232         0.30534
C         44.08440        39.52469         0.10253
C         45.28828        41.64164         0.44555
C         44.04129        42.33957         0.52657
C         45.28660        44.56326         0.74149
C         44.01021        43.78342         0.56717
C         45.26673        45.91209         0.05508
C         43.99909        46.59435        -0.03735
C         45.15238        48.67113        -0.72101
C         43.96642        47.99826        -0.34707
C         45.14927        50.06322        -0.96555
C         43.91409        50.80894        -0.85902
C         43.85533        52.19749        -1.12820
C         47.68139        23.09978        -0.27848
C         46.50638        22.39310        -0.20740
C         47.70304        24.50872        -0.10855
C         46.47090        25.20366         0.11224
C         47.70709        27.34832         0.19206
C         46.47830        26.62186         0.28611
C         47.75106        28.75760         0.39477
C         46.52619        29.44222         0.94466
C         47.74473        31.62781         0.64901
C         46.50640        30.92855         0.69641
C         47.77708        33.04809         0.77132
C         46.50449        33.74859         0.98420
C         47.79413        35.95619         0.79561
C         46.50483        35.27192         0.98540
C         47.79442        37.36399         0.64279
C         46.55375        38.07730         0.47579
C         47.78109        40.21208         0.40584
C         46.54772        39.48995         0.37969
C         47.79179        41.64087         0.36570
C         46.53616        42.37985         0.44506
C         47.77036        44.55124         0.41443
C         46.52462        43.76627         0.44595
C         47.73130        45.92582        -0.11880
C         46.45506        46.54179        -0.30836
C         47.67362        48.65616        -0.96018
C         46.39118        47.86273        -1.03574
C         47.59432        50.04809        -1.20283
C         46.38570        50.71766        -1.25736
C         50.20181        24.54231        -0.21239
C         48.93476        25.24030        -0.19746
C         50.14555        27.40424        -0.35880
C         48.91294        26.64233        -0.11969
C         50.19395        28.82599         0.00611
C         48.96645        29.48876         0.30865
C         50.21301        31.62676         0.46529
C         48.98272        30.91403         0.50201
C         50.22584        33.05337         0.60453
C         48.99248        33.76634         0.75411
C         50.24161        35.92382         0.77430
C         49.00134        35.21672         0.79816
C         50.23869        37.33967         0.78861
C         49.03251        38.07062         0.65262
C         50.23309        40.22661         0.37030
C         49.02204        39.50823         0.49392
C         50.24744        41.62271         0.18480
C         49.02083        42.32552         0.27158
C         50.28175        44.49166        -0.13422
C         49.07363        43.79556         0.34696
C         50.21062        45.88803        -0.42872
C         48.94221        46.57903        -0.45456
C         50.14819        48.64730        -1.06245
C         48.90729        47.97637        -0.83300
C         51.39566        25.18441        -0.24028
C         52.72338        27.37451        -0.19250
C         51.47381        26.63139        -0.46138
C         52.68595        28.78112        -0.03618
C         51.43096        29.50402         0.06001
C         52.68639        31.62405         0.32822
C         51.44824        30.91703         0.29463
C         52.69535        33.04603         0.45135
C         51.46541        33.76292         0.57534
C         52.72284        35.86671         0.64621
C         51.48870        35.18882         0.69724
C         52.84401        37.35085         0.91350
C         51.50774        38.08179         0.94822
C         52.75671        40.20652         0.17008
C         51.51115        39.54629         0.64312
C         52.71336        41.64299        -0.02260
C         51.51210        42.33934         0.01897
C         52.69882        44.46510        -0.57150
C         51.48451        43.77709        -0.20791
C         52.65228        45.86553        -0.87555
C         51.41195        46.57398        -0.78565
C         51.34239        47.97634        -1.05542
C         55.15005        27.36951        -0.01255
C         53.95539        26.68696        -0.15607
C         55.15271        28.77725         0.10349
C         53.91788        29.49008         0.10907
C         55.16899        31.61114         0.31095
C         53.92712        30.91403         0.24316
C         55.17497        33.04168         0.37314
C         53.93874        33.74995         0.42014
C         55.18529        35.91459         0.34403
C         53.93693        35.17743         0.46219
C         55.16941        37.29885         0.11104
C         53.81328        37.94569        -0.12758
C         55.06227        40.05844        -0.83116
C         53.85653        39.45835        -0.14653
C         55.12086        41.56596        -0.78612
C         54.03540        42.36510        -0.10703
C         55.08351        44.40276        -1.15855
C         53.91641        43.76211        -0.65932
C         55.02833        45.80277        -1.44435
C         53.86244        46.50810        -1.28342
C         56.38160        29.49523         0.21360
C         56.38754        30.86209         0.29984
C         56.39401        33.79081         0.39493
C         56.40258        35.16135         0.37628
C         56.35028        38.10924         0.06362
C         56.32843        39.41648        -0.31395
C         56.18873        42.22757        -1.35208
C         56.23693        43.63776        -1.44374
O         34.57717        39.82374         1.61972
O         28.38369        39.94806        -1.42750
O         41.54075        43.00276         1.97696
O         48.59422        44.35391         1.62577
O         38.13613        29.10168         1.79019
O         51.50193        39.06154         2.05113
O         46.43217        34.52161         2.24457
O         31.09700        33.60125         1.29189
O         41.47397        30.23492         2.09849
O         50.77489        27.10048        -1.65638
O         34.07299        43.46174        -1.63723
H         33.99114        44.32137        -2.10043
O         39.01585        46.66620         2.30682
H         39.06182        45.73014         2.59920
O         54.93731        39.66532        -2.25374
H         55.71179        40.03494        -2.72956
O         42.75490        22.70648         2.04457
H         42.08697        23.33960         2.41566
O         31.31567        47.08991        -1.28095
H         32.04860        47.69711        -1.56110
O         54.47659        42.52235         1.30369
H         53.80542        43.07701         1.75626
O         33.66527        48.45135        -1.45338
H         34.40060        48.16894        -2.03733
O         30.57051        44.43561         2.38488
H         29.75016        44.83667         2.74438
O         33.19454        40.23836        -1.70738
H         32.55297        40.85575        -2.11925
O         45.36441        44.87194         2.18418
H         45.40676        44.02036         2.66923
O         39.23188        51.22336         1.90368
H         40.12055        51.60918         2.05667
O         36.82940        33.79692        -2.06664
H         36.90291        32.86359        -2.36234
O         30.43741        27.41103        -2.68276
H         29.69465        27.99043        -2.95698
O         33.84839        26.38870         1.39609
H         33.00906        25.89186         1.50502
O         41.72997        37.99883        -1.84585
H         40.81087        38.15876        -2.20048
O         41.33491        25.01611         2.25532
H         41.94367        25.66629         2.66906
O         53.34112        37.54153        -1.44255
H         53.86004        38.06515        -2.09967
O         31.26078        31.30126        -2.11341
H         32.04113        31.03194        -2.65132
O         31.57795        35.00935        -2.05233
H         31.55989        35.90620        -2.44838
O         53.46927        37.47350         2.21022
H         53.00593        38.20904         2.67973
O         46.25815        47.49521        -2.46943
H         46.23019        48.33537        -2.97578
O         30.63234        31.05409         1.49320
H         30.98623        31.83011         1.98955
O         44.31290        37.88874        -1.63805
H         43.45392        38.09131        -2.08405
O         42.74674        37.73795         1.70080
H         41.98391        37.26187         2.09113
O         34.12296        42.63018         1.93377
H         34.17554        41.74897         2.37102
O         39.05160        38.08426        -1.98454
H         38.72488        37.20268        -2.27220
O         34.15696        30.95474        -2.32163
H         34.27385        31.90056        -2.56255
O         46.64761        29.30108         2.42395
H         45.89695        29.79174         2.82333
H         27.00826        26.76837        -0.62945
H         25.76811        28.90739        -0.74470
H         25.73503        31.35966        -0.52124
H         25.72174        33.24523        -0.26004
H         25.71802        35.66663        -0.11456
H         25.76340        37.50735         0.38306
H         25.71529        39.91140         0.55015
H         25.73192        41.85655         0.47737
H         25.77833        44.29481         0.87993
H         27.01512        46.39985         0.96318
H         29.10001        25.52184        -0.86732
H         29.10682        47.65667         0.46638
H         32.94074        23.44441        -1.20748
H         30.82136        24.64152        -1.26054
H         33.10932        49.57149         1.38683
H         30.96267        48.35504         1.53888
H         34.57161        22.51334        -1.15417
H         34.43077        50.74042         0.01591
H         36.68072        21.32655        -1.09087
H         36.53735        52.00363         0.20095
H         40.40403        19.18224        -0.83009
H         38.27905        20.40362        -0.98921
H         40.19887        54.00750        -0.97141
H         38.15812        52.96986        -0.12954
H         42.80335        19.14977        -0.45185
H         42.63436        53.97163        -1.28150
H         44.93801        20.34698        -0.31383
H         44.75943        52.74239        -1.42899
H         48.61023        22.55235        -0.48183
H         46.54146        21.30389        -0.33386
H         48.51284        50.64144        -1.30819
H         46.40140        51.79945        -1.44104
H         50.20569        23.45342        -0.07200
H         50.15389        49.71962        -1.29713
H         52.31780        24.60963        -0.07825
H         52.25901        48.53889        -1.27468
H         56.10426        26.82408        -0.01154
H         53.97774        25.59613        -0.27954
H         55.93687        46.31003        -1.80015
H         53.86428        47.58283        -1.50761
H         57.32680        28.93363         0.21476
H         57.35114        31.38292         0.36977
H         57.35727        33.26415         0.39745
H         57.36740        35.68637         0.34894
H         57.30869        37.66816         0.37762
H         57.25674        40.00634        -0.29747
H         57.02549        41.64796        -1.77559
H         57.12715        44.12889        -1.86027
