         207
 CSIRO Nanostructure Databank - Neutral Graphene Oxide Data Set
C         30.39962        31.59652        -0.14672
C         30.45526        32.85312        -0.13624
C         30.43386        35.95239         0.26831
C         30.56016        37.16322         0.49895
C         30.68596        40.17743         1.34387
C         30.64349        41.40385         1.57219
C         32.85684        28.86708        -0.46570
C         31.72884        29.39914        -0.35613
C         32.80082        31.56801        -0.39274
C         31.55860        30.80506        -0.28874
C         32.77734        33.01000        -0.42627
C         31.54411        33.71204        -0.33412
C         32.76903        35.96373        -0.55019
C         31.45644        35.16594        -0.43815
C         32.84289        37.38293        -0.08188
C         31.69592        38.03450         0.46536
C         32.92342        40.17746         0.58448
C         31.74213        39.38699         0.81937
C         32.91948        41.60465         0.79030
C         31.72748        42.28435         1.29343
C         32.90567        44.26708         1.00537
C         31.84993        43.68070         1.38207
C         35.58146        27.37199        -0.62476
C         35.37937        28.76885        -0.53820
C         34.13972        29.45541        -0.50189
C         35.31263        31.62013        -0.43743
C         34.06947        30.88215        -0.46582
C         35.29115        33.05191        -0.48297
C         34.02272        33.77534        -0.54853
C         35.25674        35.93763        -0.84570
C         34.01331        35.16992        -0.61322
C         35.21432        37.47164        -0.90718
C         34.03759        38.11430        -0.20074
C         35.30245        40.26374        -0.15778
C         34.08445        39.50814         0.08082
C         35.30227        41.66843        -0.00814
C         34.09447        42.35263         0.42764
C         35.24914        44.60264         0.00439
C         34.11282        43.77600         0.51793
C         35.44721        45.90532         0.79275
C         37.96267        27.36823        -0.52304
C         36.68040        26.77075        -0.60971
C         37.86473        28.78413        -0.46315
C         36.61594        29.48388        -0.45519
C         37.77151        31.66439        -0.16246
C         36.56158        30.92782        -0.37140
C         37.72045        33.07424        -0.10472
C         36.51284        33.75914        -0.36383
C         37.80489        35.99233        -0.39764
C         36.56743        35.21105        -0.64861
C         37.77529        37.40385        -0.47710
C         36.52897        38.13571        -0.52664
C         37.79535        40.25274        -0.58187
C         36.52188        39.52051        -0.41146
C         37.79280        41.74781        -0.43641
C         36.52452        42.45007        -0.12147
C         37.84382        44.50328         0.24743
C         36.56803        43.82487         0.04888
C         37.91183        45.79520         0.80792
C         36.60363        46.31528         0.98705
C         40.31444        24.62295         0.34444
C         39.32967        25.27482        -0.07807
C         40.42188        27.33670        -0.03571
C         39.20080        26.66785        -0.29889
C         40.44914        28.80289        -0.25539
C         39.11879        29.55495        -0.45355
C         40.23079        31.65829         0.19568
C         39.05524        30.98753        -0.10399
C         40.23244        33.10983         0.47590
C         38.92839        33.85010         0.25887
C         40.25321        35.92644        -0.06506
C         39.00450        35.28977        -0.06451
C         40.27111        37.33988        -0.47669
C         39.02262        38.12783        -0.41441
C         40.31344        40.26398        -0.42990
C         39.07437        39.51950        -0.46344
C         40.31028        41.68737        -0.32471
C         39.08424        42.43343        -0.21202
C         40.33805        44.61581        -0.14753
C         39.08418        43.79597         0.04175
C         40.42857        45.85938         0.70707
C         39.17150        46.27073         1.47350
C         40.39856        48.31538         1.69715
C         39.28183        47.76802         1.72624
C         42.74456        24.69257         1.25517
C         41.54973        25.20922         0.70637
C         42.78216        27.39882         0.77030
C         41.58996        26.65531         0.47037
C         42.91698        28.85674         0.34601
C         41.58916        29.57886         0.24814
C         42.62275        31.72015         0.84931
C         41.48659        30.96015         0.35988
C         42.72107        33.13870         0.71532
C         41.51504        33.85321         0.41106
C         42.76268        35.96511         0.14384
C         41.50260        35.24259         0.17278
C         42.80831        37.35681        -0.05913
C         41.58602        38.08337        -0.44895
C         42.79070        40.21023        -0.25890
C         41.56126        39.55218        -0.35878
C         42.80952        41.66828        -0.46347
C         41.55333        42.41699        -0.26066
C         42.84190        44.52817        -0.03807
C         41.60147        43.79521        -0.08691
C         42.81965        45.95497         0.15598
C         41.60986        46.56652         0.71263
C         42.87718        48.28958         2.07605
C         41.72756        47.83514         1.48942
C         43.74855        25.41148         1.49118
C         45.15699        27.54155         1.56969
C         43.94367        26.79862         1.30776
C         45.17123        28.98511         1.56542
C         43.91698        29.60303         1.20146
C         45.41928        31.98888         1.59327
C         43.63357        30.93326         1.47358
C         45.25780        33.22262         0.90419
C         43.98599        33.85665         0.70762
C         45.23542        35.92076         0.13529
C         44.00090        35.24350         0.33604
C         45.28083        37.36700         0.05242
C         44.02865        38.09542         0.03062
C         45.26226        40.26241         0.18734
C         44.01692        39.50770        -0.07285
C         45.36848        41.69724        -0.09323
C         44.11796        42.41112        -0.42730
C         45.30554        44.55648        -0.22272
C         44.07320        43.85847        -0.17885
C         45.22657        45.98973        -0.31556
C         43.99718        46.67762        -0.11406
C         43.90921        48.65826         2.69764
C         47.51691        27.64838         1.95503
C         46.42214        27.01959         1.83825
C         47.66887        29.03477         1.88693
C         46.41485        29.71534         1.73960
C         47.73748        31.72008         0.95620
C         46.52053        31.14075         1.48092
C         47.67193        33.04093         0.39600
C         46.45605        33.79159         0.37226
C         47.64199        35.77616        -0.48247
C         46.45354        35.17099         0.00147
C         47.78724        37.26420        -0.18558
C         46.50218        38.03293        -0.05145
C         47.86576        40.25168         0.07490
C         46.60036        39.48232         0.22795
C         47.86661        41.66961         0.06652
C         46.58392        42.38136        -0.06011
C         47.75868        44.51754        -0.58115
C         46.55068        43.82723        -0.29395
C         47.52787        45.90105        -0.74219
C         46.48982        46.59169        -0.60151
C         50.21270        29.05327         1.62652
C         48.95488        29.81075         1.99214
C         50.15309        31.59902         0.48209
C         48.96210        31.04976         1.06550
C         50.09568        32.90036        -0.14272
C         48.84826        33.60874        -0.15770
C         49.90410        35.36733        -1.44298
C         48.76977        34.93281        -0.70509
C         49.96152        37.61348        -1.51529
C         48.85788        38.13350        -0.84100
C         50.35064        39.83901        -0.07860
C         49.02111        39.42748        -0.25693
C         50.40288        41.97692         0.13862
C         49.09042        42.48191        -0.08686
C         50.28289        44.34700        -0.87946
C         49.00765        43.83091        -0.57160
C         51.23836        29.59086         1.18113
C         52.48958        31.55720        -0.00273
C         51.40735        30.85156         0.53032
C         52.40549        32.71508        -0.50709
C         51.28693        33.53959        -0.68357
C         52.16299        35.79123        -1.72900
C         51.18087        34.80629        -1.34232
C         52.20681        37.03066        -1.81166
C         51.30555        38.10031        -1.45421
C         52.58554        40.23636        -0.60462
C         51.50475        39.28742        -0.70704
C         52.62431        41.47878        -0.52286
C         51.63352        42.50507        -0.37923
C         51.42362        43.80489        -0.89583
O         45.88659        39.86362         1.45419
O         37.75350        41.12703        -1.77779
O         43.51315        42.02389        -1.72455
O         41.02650        37.57524        -1.72225
O         31.86006        35.73598        -1.69274
O         39.99890        29.23580        -1.58741
O         39.39271        33.51899         1.61927
O         50.53379        40.81952         0.91648
O         49.72339        36.46504        -2.29420
O         44.39370        31.58611         2.45794
O         49.08377        30.30704         3.32747
H         48.97905        29.55888         3.95136
O         35.02050        37.81172        -2.30774
H         35.55191        37.17037        -2.83386
O         43.98185        48.01640        -0.22607
H         44.89915        48.34814        -0.32225
O         36.01293        35.44440        -2.00817
O         35.00421        44.94239        -1.35546
H         34.11182        45.34026        -1.42792
O         40.25099        45.11526        -1.52975
H         40.27123        44.34039        -2.13174
O         43.45522        28.83935        -1.01778
H         42.74308        28.53668        -1.62138
O         39.22620        45.63330         2.75697
H         38.42066        45.87584         3.26059
O         48.31405        37.17528         1.20402
H         48.12439        38.02542         1.65921
