         236
 CSIRO Nanostructure Databank - Neutral Graphene Oxide Data Set
C        -11.26468         0.68370        -0.93391
C        -10.02386         1.45108        -0.98828
C         -8.81428         0.59020        -1.34512
C         -7.48975         1.39390        -1.43596
C         -6.20701         0.61271        -1.34178
C         -4.93835         1.40345        -1.26907
C         -3.71476         0.80761        -0.60840
C         -2.46926         1.31192        -1.33366
C         -1.22280         0.60095        -1.02369
C         -0.01488         1.07931        -1.49382
C          1.24650         0.78457        -0.83862
C          2.51121         1.49124        -1.20474
C          3.71273         0.84594        -0.94202
C          4.97033         1.55701        -0.82083
C          6.20866         0.78741        -0.61813
C          7.49189         1.48652        -0.61392
C          8.68706         0.82909        -0.79086
C          9.94640         1.55069        -0.67346
C         11.16602         0.77516        -0.55157
C         -9.94759         2.75274        -0.61468
C         -8.62706         3.36333        -0.21821
C         -7.45603         2.85371        -1.03998
C         -6.17252         3.56064        -0.92582
C         -4.96057         2.90193        -1.18904
C         -3.72934         3.59131        -1.21858
C         -2.46025         2.89889        -1.52837
C         -1.19313         3.64540        -1.35820
C          0.02256         3.16216        -1.75954
C          1.31246         3.70813        -1.37928
C          2.47016         2.93024        -1.36642
C          3.78468         3.64287        -1.56174
C          4.97988         2.92788        -0.95613
C          6.19441         3.68848        -0.61588
C          7.49270         2.95156        -0.41004
C          8.75579         3.70917        -0.61688
C          9.97179         2.92888        -0.61531
C         -8.59080         4.84956         0.01916
C         -7.44853         5.58141        -0.10174
C         -6.29915         5.07258        -0.96012
C         -4.97125         5.80015        -0.74324
C         -3.69039         5.04684        -1.00806
C         -2.38703         5.67853        -0.53879
C         -1.14840         4.80715        -0.38785
C          0.12584         5.65124        -0.51421
C          1.31685         5.11814        -0.95400
C          2.60015         5.84676        -0.93381
C          3.74616         5.12562        -1.22542
C          5.07099         5.71215        -1.32934
C          6.24581         5.10385        -1.01649
C          7.53174         5.93200        -0.93308
C          8.75954         5.06559        -0.76939
C         -7.34636         6.86665         0.55589
C         -6.16114         7.53353         0.73852
C         -4.91266         7.05523         0.08691
C         -3.61098         7.50785         0.64652
C         -2.44085         6.87241         0.33395
C         -1.10539         7.32619         0.89300
C         -0.03362         7.13590        -0.20453
C          1.29709         7.84219         0.10159
C          2.60278         7.27299        -0.40369
C          3.84400         7.85202         0.21387
C          5.07675         7.65063        -0.33266
C          6.30701         7.73489         0.45497
C          7.39576         6.94196         0.21462
C         -6.07210         8.70942         1.56815
C         -4.87224         9.27036         1.90010
C         -3.61081         8.70077         1.48995
C         -2.41045         9.29121         1.84080
C         -1.15289         8.72953         1.44838
C          0.04485         9.33157         1.73428
C          1.30843         8.80792         1.25393
C          2.46812         9.21167         1.84389
C          3.79343         9.02012         1.17922
C          5.00541         9.04526         2.07890
C          6.17725         8.49391         1.70352
C        -11.23552        -0.65098        -0.67878
C         -9.98958        -1.38714        -0.47977
C         -8.74111        -0.53444        -0.29446
C         -7.44039        -1.29864        -0.34370
C         -6.24859        -0.73050        -0.68748
C         -4.97947        -1.38506        -0.32099
C         -3.75202        -0.68734        -0.40194
C         -2.51841        -1.33245        -0.03722
C         -1.23567        -0.63437        -0.25177
C         -0.04027        -1.24238         0.06498
C          1.23748        -0.50941        -0.04125
C          2.53629        -1.26314        -0.02146
C          3.75474        -0.58317        -0.54271
C          4.97275        -1.37346        -0.99228
C          6.20353        -0.59310        -0.58562
C          7.38795        -1.32950        -1.14671
C          8.74437        -0.63001        -1.19286
C          9.92413        -1.34962        -0.58005
C         11.14607        -0.57939        -0.43415
C         -9.94647        -2.74211        -0.47746
C         -8.63235        -3.48281        -0.52776
C         -7.54682        -2.68541         0.22866
C         -6.24009        -3.42889         0.26636
C         -5.01644        -2.70119         0.20440
C         -3.79734        -3.32906         0.82797
C         -2.52018        -2.62058         0.47735
C         -1.27486        -3.31600         0.85285
C          0.05156        -2.56081         0.79419
C          1.16131        -3.40997         0.17896
C          2.44581        -2.74715        -0.19299
C          3.71493        -3.51797        -0.23738
C          4.96103        -2.82326        -0.52640
C          6.13979        -3.51257        -0.53552
C          7.41279        -2.82209        -0.86297
C          8.68772        -3.50836        -0.46889
C          9.88962        -2.67596        -0.27225
C         -8.67958        -4.91128        -0.03194
C         -7.53070        -5.54650         0.37662
C         -6.28134        -4.80211         0.44363
C         -5.03520        -5.55408         0.82440
C         -3.74871        -4.81878         0.58086
C         -2.55268        -5.53985         0.55855
C         -1.27581        -4.82132         0.81858
C          0.01251        -5.54980         0.67898
C          1.18171        -4.85337         0.49280
C          2.48080        -5.52944         0.55256
C          3.70772        -4.87109         0.04430
C          4.92324        -5.65066         0.03747
C          6.19494        -5.02094        -0.47076
C          7.44149        -5.56983         0.19610
C          8.60323        -4.84851         0.16590
C         -7.49541        -6.98587         0.62480
C         -6.32462        -7.70278         0.59624
C         -5.06000        -6.97581         0.31623
C         -3.75862        -7.72450         0.22353
C         -2.52336        -6.95018         0.43737
C         -1.25974        -7.67685         0.37825
C          0.00601        -6.99592         0.65898
C          1.18114        -7.72937         0.68333
C          2.47104        -7.02205         0.73141
C          3.66742        -7.80287         0.25182
C          4.94100        -6.99619         0.34085
C          6.19641        -7.66097         0.64716
C          7.37618        -6.93268         0.67550
C         -6.24086        -9.13766         0.74232
C         -5.05426        -9.81447         0.71886
C         -3.76203        -9.17874         0.52926
C         -2.59001        -9.85387         0.76079
C         -1.27036        -9.24043         0.51164
C         -0.00844        -9.85804         0.93079
C          1.19305        -9.17136         0.84308
C          2.48189        -9.80227         1.11951
C          3.68196        -9.16269         0.91476
C          4.96926        -9.74266         1.21114
C          6.13903        -9.04488         1.07693
O          7.06799        -1.20315        -2.63260
H          7.22507        -2.08532        -3.05772
O          3.54278        -0.79325         0.91018
O         -2.59750         1.92860        -2.61410
O         -1.37436        -4.08092         2.12143
O          1.45749        -3.11214        -1.23051
O         -5.31916         0.74493        -2.50037
O         -8.25496        -3.55873        -1.92945
H         -8.46349        -2.69614        -2.35291
O          8.89117        -0.70183        -2.66849
O         -1.18466        -8.57128        -0.78133
O          6.70983         3.41233         0.74532
O          0.45806        -2.25420         2.14736
H          0.06740        -2.94748         2.72904
O         -8.00059        -2.55687         1.61945
H         -7.20374        -2.50792         2.18960
O          0.04775         1.99223        -2.55757
O         -3.66348         1.39212         0.73393
H         -2.96949         0.92669         1.24803
O         -7.59090         2.40828        -2.43338
O         -1.20586         4.22178         0.94613
H         -0.30472         3.93366         1.20281
O          4.01811         3.57023        -3.01504
H          3.20017         3.86729        -3.46871
O         -0.58833         7.73369        -1.39160
H          0.16671         7.98690        -1.97202
O         -8.93168        -0.01895        -2.58198
O          5.15082        -1.41247        -2.43084
O          1.16482         0.76913         0.64653
O         -4.49937        -7.25747        -0.98471
O         -0.70327         6.48418         2.00609
H         -1.40280         6.52485         2.69078
O          8.19541        -3.52404        -1.90263
O         -6.71338         5.34485        -2.32733
H         -5.91668         5.37968        -2.89755
O         -3.97710        -3.17175         2.31272
H         -3.10406        -3.43440         2.69992
O          3.90968        10.21168         0.31335
H          3.22376        10.11688        -0.38561
O          5.12505         7.08611        -1.62200
O          1.88508         8.32612        -1.16014
O         -8.35274         2.83960         1.13761
H         -8.62277         1.88498         1.16953
O          2.70600        -6.17513         1.88345
O         -4.97344         7.10680        -1.38367
O          3.43908        -8.02610        -1.17264
H          4.26522        -8.37843        -1.56500
O          6.27911        -5.47322        -1.86761
H          7.05842        -5.00563        -2.25836
O         -8.79757         0.05860         1.03604
H         -8.72110        -0.69764         1.66875
O         -2.80440         5.78812        -1.92007
O         -5.11673        -5.68190         2.29202
H         -4.91359        -4.78008         2.65217
O          7.73169         6.65672        -2.16539
H          6.90514         7.16417        -2.34098
H         12.07770        -1.12933        -0.23385
H         12.11615         1.32150        -0.45859
H         10.93731         3.45599        -0.58111
H          9.72487         5.57633        -0.91082
H          8.22401         6.98764         0.94113
H          7.05642         8.55071         2.36323
H          4.93359         9.59452         3.02989
H          2.41897         9.91308         2.69147
H          0.06754        10.26398         2.31947
H         -2.41237        10.24046         2.39811
H         -4.84559        10.17098         2.53082
H         -7.00705         9.14563         1.94991
H         -8.24914         7.24418         1.06216
H         -9.43393         5.27283         0.58975
H        -10.86387         3.28954        -0.31877
H        -12.22667         1.20904        -1.03616
H        -12.17599        -1.22175        -0.63353
H        -10.87280        -3.31868        -0.63399
H         -9.60273        -5.49173        -0.18484
H         -8.45437        -7.51271         0.74968
H         -7.17580        -9.69623         0.90025
H         -5.05780       -10.90504         0.86570
H         -2.62192       -10.89573         1.11552
H         -0.02370       -10.89953         1.28655
H          2.47487       -10.83359         1.50704
H          4.99874       -10.77775         1.58511
H          7.08888        -9.53573         1.33701
H          8.29730        -7.40037         1.05612
H          9.53810        -5.29061         0.54509
H         10.78669        -3.16320         0.14036
