         294
 CSIRO Nanostructure Databank - Neutral Graphene Oxide Data Set
C        -11.18713         0.62372         0.79601
C         -9.93946         1.39193         1.22737
C         -8.77544         0.70747         0.52812
C         -7.55958         1.47690         0.17383
C         -6.30265         0.78163        -0.34598
C         -5.02766         1.46628         0.12167
C         -3.82879         0.85740        -0.69207
C         -2.54902         1.42331        -0.07122
C         -1.30363         0.69002        -0.54376
C         -0.02785         1.40603        -0.26048
C          1.23120         0.70917        -0.66366
C          2.53359         1.46130        -0.60637
C          3.78112         0.72592        -0.26021
C          4.95190         1.48234         0.30559
C          6.19815         0.70031         0.59641
C          7.51287         1.43376         0.73955
C          8.81029         0.67799         0.77920
C         10.14323         1.43799         0.90042
C         11.30479         0.64625         0.33832
C        -10.03672         2.90214         0.81835
C         -8.71594         3.66003         0.65216
C         -7.41637         2.90200         0.69196
C         -6.22431         3.64189         0.11983
C         -5.05273         2.95486        -0.13707
C         -3.77866         3.61013        -0.33110
C         -2.57390         2.92555        -0.28504
C         -1.32287         3.67539         0.14535
C         -0.00838         2.86870         0.07217
C          1.33740         3.62097         0.17584
C          2.50480         2.97657        -0.55885
C          3.80844         3.70504        -0.47866
C          4.95302         3.02649         0.28567
C          6.31332         3.65873         0.01525
C          7.56876         2.87746         0.30846
C          8.84846         3.62020         0.47449
C         10.03971         2.90944         0.53593
C         -8.70487         5.01557         0.55843
C         -7.49486         5.80948         0.33160
C         -6.23890         5.09676         0.08874
C         -5.05931         5.78642        -0.10454
C         -3.81013         5.09683        -0.59442
C         -2.51667         5.80430        -0.21804
C         -1.26285         5.04888        -0.64172
C         -0.03471         5.85061        -0.26066
C          1.24706         5.13870         0.01749
C          2.55051         5.89754         0.02193
C          3.86243         5.23716        -0.39094
C          5.04748         5.88121         0.36686
C          6.35268         5.13307         0.17677
C          7.56363         5.77613         0.42613
C          8.78366         5.05093         0.47367
C         -7.53498         7.18451         0.31379
C         -6.34684         7.99569        -0.01457
C         -5.04942         7.25825        -0.19471
C         -3.80674         8.03331         0.25141
C         -2.49430         7.27993         0.03262
C         -1.27895         8.09384        -0.37127
C         -0.00933         7.32556        -0.65528
C          1.33466         7.95184        -0.87444
C          2.56745         7.38483        -0.29799
C          3.88241         8.14145        -0.50340
C          5.15370         7.31022        -0.19864
C          6.41257         8.04126         0.09199
C          7.54633         7.26285         0.78088
C         -6.22728         9.44342         0.32345
C         -5.07734        10.12954         0.16696
C         -3.79776         9.46278        -0.32301
C         -2.50354        10.16327         0.06448
C         -1.29814         9.55279        -0.03561
C         -0.01814        10.40235         0.01495
C          1.25559         9.75788         0.54760
C          2.51581        10.13212         0.09544
C          3.79753         9.40152         0.45920
C          5.10730        10.16263         0.29818
C          6.29332         9.53194         0.18824
C        -11.17781        -0.69599         0.54726
C         -9.97820        -1.59079         0.80395
C         -8.67285        -0.78725         0.69436
C         -7.38581        -1.49667         0.39056
C         -6.10062        -0.76727         0.01205
C         -5.22455        -1.38571        -1.08148
C         -3.84537        -0.67511        -1.00740
C         -2.54760        -1.45266        -0.93300
C         -1.31139        -0.67405        -0.63083
C         -0.10353        -1.42944        -0.19319
C          1.21282        -0.76983        -0.47635
C          2.46907        -1.51463        -0.14646
C          3.74668        -0.76057        -0.00400
C          5.08530        -1.41782        -0.30871
C          6.19192        -0.84964         0.63256
C          7.49372        -1.47507         0.17870
C          8.77632        -0.70598         0.16688
C         10.05686        -1.50942        -0.10521
C         11.29717        -0.68145         0.13929
C         -9.88525        -2.82754        -0.12916
C         -8.68275        -3.65495         0.21980
C         -7.33271        -3.02656         0.33245
C         -6.35679        -3.67941        -0.67685
C         -5.09091        -2.92323        -1.05321
C         -3.77681        -3.67689        -1.15654
C         -2.50328        -2.95420        -0.81561
C         -1.37492        -3.62839        -0.41897
C         -0.14670        -2.90567         0.06343
C          1.23321        -3.59716         0.41123
C          2.37976        -3.01286        -0.47248
C          3.74154        -3.70605        -0.31406
C          5.03134        -2.94381        -0.27130
C          6.19317        -3.66688         0.41308
C          7.51526        -2.94623         0.22108
C          8.75264        -3.65386         0.40063
C          9.97407        -2.91620         0.44761
C         -8.72386        -5.09106         0.63371
C         -7.43014        -5.84014         0.29688
C         -6.35011        -5.17406        -0.50658
C         -4.98824        -5.85235        -0.36009
C         -3.86770        -5.23388        -1.22564
C         -2.49230        -5.90664        -0.96565
C         -1.35951        -5.12138        -0.33924
C         -0.09451        -5.85047         0.04290
C          1.20228        -5.13281         0.34885
C          2.50938        -5.86948         0.26739
C          3.79477        -5.14221         0.08126
C          4.97118        -5.84351         0.11815
C          6.30370        -5.13752        -0.04870
C          7.45197        -5.83952         0.71749
C          8.74034        -5.07206         0.53083
C         -7.31684        -7.14532         0.62470
C         -6.33569        -8.07445        -0.05992
C         -5.05254        -7.37956        -0.53581
C         -3.75811        -8.13174        -0.58193
C         -2.45549        -7.40175        -0.81863
C         -1.16248        -8.14276        -0.51354
C          0.05005        -7.33107        -0.22803
C          1.28509        -8.02004         0.27664
C          2.53969        -7.31391        -0.19408
C          3.81531        -8.02367         0.18254
C          4.99029        -7.30303         0.24991
C          6.27853        -7.99823         0.28973
C          7.46453        -7.30980         0.37002
C         -6.06985        -9.37964         0.66128
C         -4.89438       -10.02487         0.66172
C         -3.58793        -9.37669         0.28070
C         -2.49669       -10.31286        -0.30739
C         -1.15889        -9.59657        -0.16998
C         -0.01117       -10.22311         0.18676
C          1.28438        -9.50704         0.37721
C          2.59464       -10.17981         0.22837
C          3.78404        -9.47736         0.20316
C          5.07365       -10.14617         0.17275
C          6.24089        -9.44888         0.19528
O         -0.40317        -1.94043         1.14346
O          1.14902        -0.17198        -1.81614
O         -0.19264        -7.80145        -1.57818
O         -8.64403         1.26070        -0.81651
O          4.57594        -3.49133        -1.53746
O         -9.73589        -2.30726        -1.46452
H         -9.51260        -3.04877        -2.06493
O          3.47130         1.02174        -1.64077
O          6.65168        -5.19381        -1.44589
H          7.53656        -4.78350        -1.55235
O         -6.86500        -4.54583        -1.72322
O          5.26103         1.08841         1.67249
O          1.06127         9.06457         1.69277
H          1.93033         8.70116         2.00921
O         -6.36876         1.01926        -1.75813
H         -7.27280         0.77828        -2.06410
O         -0.88766         7.72820        -1.74808
O          2.52492         6.88057         1.06515
O          1.57409        -3.23440         1.74089
H          0.95908        -3.67822         2.36023
O         -4.49107        -3.22897        -2.34650
O          3.03450        -1.19907         1.17279
O          8.06657         0.96780         2.01378
O         -4.27931        -5.56892        -2.54885
H         -3.57804        -5.31477        -3.18246
O          0.02935         1.84803         1.13050
O          0.38344         5.66477         1.09617
O         -5.25615        -0.97071         1.16224
H         -5.73356        -0.63645         1.95565
O         -1.20429         4.79577        -2.04614
H         -2.13008         4.80278        -2.40254
O         -1.66472         3.80615         1.49173
O          4.60841         3.45188         1.62529
H          4.82939         2.72252         2.25160
O          3.17658         3.42897        -1.77029
O        -10.76042         2.99144        -0.41612
H        -10.22166         2.52359        -1.09451
O          6.14981         7.49789        -1.25212
O          5.44113        -1.01442        -1.64015
H          5.12963        -1.71052        -2.26109
O          1.44375         8.53468        -2.04983
H          0.53051         8.64981        -2.42607
O        -10.10148        -2.10032         2.14455
H         -9.94932        -1.35254         2.76185
O          3.74825         8.94113         1.82678
H          3.99926         9.68467         2.41279
O         -5.00129         1.36537         1.55619
H         -4.05376         1.38671         1.85591
O         10.49176         1.48929         2.32399
H          9.64099         1.58232         2.81542
O         -5.77577         7.74512        -1.37931
O          7.94832        -0.75110        -1.04864
O         -2.47037         1.23609         1.36713
H         -1.97541         2.04128         1.71810
O         -6.73754        -3.46457         1.60501
H         -7.09350        -2.85521         2.29601
O          1.95118        -3.17388        -1.83267
H          2.74482        -3.10325        -2.41012
O         -2.24713        -6.75408        -2.11619
O         -7.07244        -8.48136        -1.25366
H         -6.39333        -8.68850        -1.93901
O          7.05383         3.03915        -1.07640
O         -4.60783        -8.06518        -1.75525
O         -3.10343        -0.97535        -2.21986
O         -4.64681        -5.65611         1.03504
H         -5.21879        -4.95496         1.42626
O         10.14029        -1.79648        -1.54090
H          9.23439        -1.61449        -1.90423
O          1.83661        -5.69367         1.54882
O          1.26723        -8.59491         1.58946
O          0.24555        10.85284        -1.31789
H         -0.56537        11.27356        -1.67180
O          4.02919         5.69470        -1.76571
H          4.54238         5.02780        -2.27077
O         -1.11916        -5.57226         1.04923
O         -3.02881        -8.83930         1.51664
H         -3.09899        -9.51907         2.21856
O         -2.33773         6.32423         1.12562
O         -7.17198         2.67883         2.17613
O          4.77518         5.99648         1.77078
H          5.61106         6.25052         2.22428
O         -3.77904         9.43467        -1.76422
H         -4.58586         8.93101        -2.04593
O         -3.94176         8.20937         1.68285
H         -3.56321         7.40249         2.10718
O         -9.75741         1.25542         2.64764
H        -10.44193         1.78417         3.10668
O         -3.85256         5.24602        -2.07065
H         -4.62201         4.73026        -2.39629
O          2.48752        -7.32551        -1.64538
H          3.33479        -6.96849        -1.98662
O          5.98445        -1.23711         1.97955
H          5.16343        -0.81243         2.31175
O          7.35149         7.34534         2.20603
H          7.48560         8.27288         2.48900
O         -7.74519        -1.10299         1.77628
O         -5.81275        -1.15592        -2.36839
H         -5.20717        -1.58005        -3.02026
O          1.78008         3.46560         1.54634
H          1.03592         3.75041         2.12357
O          5.80163        -3.66617         1.80236
H          6.42214        -4.24266         2.30931
O         -2.76871       -10.61499        -1.67488
H         -2.75370        -9.78363        -2.19496
O          3.96391         8.63722        -1.82934
H          4.83974         8.35303        -2.19008
O         -3.85441         1.48206        -1.99632
H         -4.61078         1.09378        -2.49432
O         -6.72204         3.92959         2.73641
H         -5.74011         3.81198         2.75979
O          7.17074        -5.82909         2.16920
H          7.94208        -6.23574         2.61724
O         -9.84403        -5.77479         0.06222
H         -9.58218        -6.11409        -0.81848
H         12.24493        -1.17926        -0.12179
H         12.27401         1.17019         0.35034
H         10.97657         3.48173         0.63204
H          9.72070         5.60890         0.62191
H          8.53566         7.73390         0.52076
H          7.21992        10.12721         0.12957
H          5.08366        11.26347         0.33815
H          2.53948        10.70229        -0.84570
H         -0.24273        11.29786         0.66791
H         -2.54214        11.23841         0.31110
H         -5.05232        11.20729         0.39318
H         -7.12953         9.96128         0.68537
H         -8.47131         7.70642         0.56613
H         -9.65762         5.56625         0.61743
H        -10.65905         3.42486         1.59317
H        -12.11809         1.19471         0.65224
H        -12.11213        -1.19461         0.24348
H        -10.81726        -3.44949        -0.05425
H         -8.86565        -5.13372         1.75789
H         -8.13536        -7.62466         1.18595
H         -6.96394        -9.90263         1.03718
H         -4.82807       -11.03010         1.11100
H         -2.47465       -11.28109         0.25345
H         -0.02695       -11.30767         0.38407
H          2.61692       -11.28020         0.19332
H          5.08905       -11.24577         0.13613
H          7.20079        -9.98685         0.17658
H          8.41877        -7.86112         0.36897
H          9.69478        -5.59303         0.70493
H         10.91491        -3.47810         0.56081
