         429
 CSIRO Nanostructure Databank - Neutral Graphene Oxide Data Set
C          1.30533         1.99249        -0.92027
C          1.26234         3.35698        -1.11309
C          2.50239         1.28539        -0.66859
C          2.49146         4.14298        -1.22248
C          1.31456         6.36393        -1.24548
C          1.32477         7.75330        -1.24927
C          2.50203         5.62687        -1.12180
C          2.52913         8.48449        -1.13705
C          1.34549        10.66962        -1.38162
C          1.33696        12.04186        -1.42413
C          2.53938         9.93013        -1.13266
C          2.51348        12.81145        -1.18377
C          1.40035        14.96205        -1.90340
C          1.45513        16.32839        -2.09523
C          2.49133        14.22385        -1.34973
C          2.66592        17.07551        -1.89487
C          2.72310        18.52076        -2.01654
C          3.73538         1.95216        -0.53248
C          3.78220         3.39383        -0.87239
C          4.92299         1.28637        -0.19493
C          4.90702         4.21091        -0.36007
C          3.73310         6.33212        -0.98304
C          3.75469         7.76318        -1.00781
C          4.96063         5.63801        -0.72056
C          4.98770         8.47479        -0.83569
C          3.74490        10.63142        -0.86535
C          3.73666        12.09324        -0.84733
C          4.95274         9.89055        -0.68850
C          4.92869        12.79098        -0.65002
C          3.65943        15.01299        -0.95009
C          3.78501        16.39630        -1.42073
C          4.95297        14.25305        -0.60196
C          5.08994        17.04406        -1.42565
C          3.85545        19.23554        -1.76293
C          5.16119        18.57275        -1.62708
C          6.18222         1.95248        -0.04741
C          6.19917         3.44297         0.01996
C          7.37574         1.28148         0.06925
C          7.43363         4.14765        -0.23797
C          6.17759         6.33116        -0.65362
C          6.22860         7.75229        -0.72319
C          7.42306         5.53807        -0.62240
C          7.48642         8.44428        -0.56230
C          6.18893        10.56152        -0.27989
C          6.18602        12.10834        -0.29848
C          7.49402         9.87454        -0.40048
C          7.45902        12.76308        -0.46849
C          6.23430        14.97252        -0.72979
C          6.27004        16.32988        -0.90911
C          7.48514        14.18026        -0.79559
C          7.50578        17.10886        -0.66329
C          6.38358        19.26960        -1.19835
C          7.56190        18.57267        -0.91336
C          8.62815         2.05715         0.38085
C          8.70679         3.36001        -0.43269
C          9.91389         1.29102         0.26050
C          9.93364         4.15185         0.00610
C          8.77037         6.29376        -0.55495
C          8.70706         7.74688        -0.38685
C          9.94515         5.55577        -0.04887
C          9.91317         8.43472        -0.06500
C          8.69209        10.57613        -0.26991
C          8.70250        12.06999         0.02004
C          9.93403         9.86603        -0.14952
C          9.98492        12.76728        -0.39006
C          8.79616        14.89615        -0.77560
C          8.79867        16.35928        -0.49205
C         10.04899        14.13207        -0.55614
C         10.07751        17.06733        -0.61675
C          8.81943        19.20627        -0.77482
C         10.05640        18.49321        -0.65404
C         11.10154         1.97856         0.37553
C         11.08632         3.45139         0.42428
C         12.36881         1.31568         0.39252
C         12.24327         4.16024         0.81040
C         11.09491         6.28161         0.35149
C         11.10771         7.73076         0.26731
C         12.23743         5.56997         0.79111
C         12.30449         8.45614         0.51620
C         11.17018        10.55215        -0.11296
C         11.19477        11.93747        -0.71941
C         12.35970         9.86532         0.24128
C         12.51043        12.69048        -0.53544
C         11.28735        14.86959        -0.61437
C         11.28776        16.32611        -0.62504
C         12.51213        14.16883        -0.46424
C         12.51176        17.02996        -0.57230
C         11.29921        19.17013        -0.61963
C         12.51467        18.45656        -0.54646
C         13.54878         1.98858         0.72302
C         13.47353         3.39653         1.28577
C         14.79562         1.35128         0.65994
C         14.74413         4.17783         0.88332
C         13.41581         6.33777         1.25535
C         13.48099         7.79510         0.99835
C         14.72173         5.60148         1.39208
C         14.67378         8.49342         1.18942
C         13.60687        10.55049         0.38822
C         13.72519        11.96550        -0.01481
C         14.74228         9.89335         0.89472
C         14.87102        12.75545         0.45961
C         13.73049        14.84135        -0.25888
C         13.82408        16.29185        -0.65605
C         14.89111        14.16150         0.23562
C         14.96276        17.03735        -0.01832
C         13.75882        19.14962        -0.40183
C         14.94576        18.46908        -0.08272
C         16.03591         2.00337         0.96166
C         16.03690         3.44755         1.19648
C         17.22738         1.29319         0.94249
C         17.19561         4.14422         1.39457
C         15.95658         6.35874         1.38811
C         15.87519         7.80444         1.81007
C         17.20185         5.61111         1.77667
C         17.18387         8.51681         1.55352
C         15.97204        10.62716         1.11287
C         16.00561        12.04435         0.95544
C         17.18492         9.93026         1.42015
C         17.19212        12.76375         1.29539
C         16.02808        14.92873         0.65525
C         16.07126        16.34514         0.50459
C         17.12059        14.23534         1.34679
C         17.28192        17.08893         0.84468
C         16.14504        19.18800         0.20702
C         17.30534        18.53217         0.61016
C         18.51228         1.92883         1.22612
C         18.50390         3.45127         1.47158
C         19.75745         1.33364         0.75673
C         19.69857         4.21313         1.03172
C         18.44995         6.36174         1.39602
C         18.41082         7.79219         1.47715
C         19.63586         5.68087         1.09990
C         19.63773         8.51463         1.40040
C         18.41029        10.66819         1.55869
C         18.37799        12.08990         1.62915
C         19.66095         9.95638         1.59809
C         19.60450        12.84747         1.99240
C         18.40456        15.02732         1.64206
C         18.42523        16.44895         1.27261
C         19.67984        14.29858         1.73971
C         19.66454        17.20162         1.69053
C         18.53206        19.23846         0.75034
C         19.72139        18.59701         1.11401
C         20.88908         2.11159         0.45702
C         20.79989         3.57012         0.51464
C         22.03964         1.47209        -0.04030
C         21.86225         4.42160        -0.16491
C         20.84124         6.42313         0.94385
C         20.83538         7.80296         1.15095
C         22.12140         5.63615         0.76085
C         22.07830         8.60310         1.00663
C         20.87438        10.63341         1.75555
C         20.93424        12.07467         2.03308
C         22.13091         9.81239         1.92356
C         22.18650        12.81936         1.74290
C         20.90450        14.96879         1.64221
C         20.94371        16.40802         1.51169
C         22.16113        14.23119         1.61627
C         22.15011        17.09083         1.39526
C         20.95639        19.25194         1.06870
C         22.17431        18.54339         1.24996
C         23.16392         2.16181        -0.74058
C         23.16910         3.68155        -0.51687
C         24.43978         1.48517        -0.30907
C         24.47208         4.36292        -0.25809
C         23.33265         6.45789         0.37485
C         23.31959         7.91756         0.58126
C         24.51041         5.79581         0.13048
C         24.60233         8.62255         0.78447
C         23.47242        10.62727         1.93779
C         23.39110        12.10193         1.52081
C         24.61274         9.89701         1.24799
C         24.58456        12.81335         1.26903
C         23.38827        14.94375         1.44418
C         23.40541        16.37590         1.37264
C         24.61326        14.22880         1.30025
C         24.62950        17.07276         1.29037
C         23.39485        19.21578         1.19428
C         24.63613        18.52004         1.24042
C         25.67196         2.15359        -0.14498
C         25.71879         3.58469        -0.14209
C         26.91263         1.44908        -0.05827
C         26.94543         4.26819        -0.07744
C         25.79552         6.45604         0.13869
C         25.81309         7.97054         0.13869
C         26.97297         5.72338         0.06560
C         27.07421         8.50329         0.72177
C         25.88051        10.66431         1.28783
C         25.81499        12.08690         0.77824
C         27.13615         9.92211         1.05312
C         27.12983        12.82164         0.93282
C         25.86622        14.94428         1.20746
C         25.88157        16.36650         1.24768
C         27.11046        14.25433         1.07458
C         27.12055        17.07575         1.23602
C         25.84589        19.21163         1.22007
C         27.10417        18.52999         1.27010
C         28.14204         2.12939        -0.12977
C         28.16051         3.54954        -0.15278
C         29.40875         1.42457        -0.15982
C         29.43260         4.28263        -0.49613
C         28.27299         6.33907         0.28049
C         28.28434         7.72825         0.75335
C         29.46685         5.68054         0.06214
C         29.61749         8.47721         0.73777
C         28.32069        10.67393         0.55950
C         28.32725        12.13252         0.77007
C         29.60297         9.93634         0.43218
C         29.59927        12.78506         0.70548
C         28.32723        14.97367         1.00465
C         28.36652        16.39036         1.14804
C         29.55618        14.24988         0.64686
C         29.63719        17.09074         1.28089
C         28.28178        19.23955         1.35163
C         29.62648        18.60752         1.56778
C         30.62749         2.07194        -0.19927
C         30.70391         3.50672        -0.23999
C         31.89206         1.23504        -0.16305
C         31.92401         4.18776        -0.22840
C         30.74700         6.35357         0.13871
C         30.82353         7.74898         0.34132
C         31.95779         5.64580        -0.11395
C         32.03585         8.47911         0.27930
C         30.88562        10.65488         0.54709
C         30.82881        12.09750         0.66576
C         32.05148         9.91613         0.50003
C         32.07722        12.81454         0.77629
C         30.87119        14.99420         0.69334
C         30.84318        16.38171         1.20535
C         32.11618        14.20354         0.80151
C         32.15450        16.93646         1.41246
C         30.66912        19.32150         0.70752
C         32.00112        19.06199         0.92294
C         33.18107         2.02921        -0.19160
C         33.17029         3.45231        -0.24215
C         34.39008         1.34422        -0.21369
C         34.40462         4.15689        -0.29995
C         33.17130         6.36534        -0.16678
C         33.24351         7.77351         0.01637
C         34.37861         5.62503        -0.65654
C         34.50838         8.49410        -0.07669
C         33.36476        10.51926         0.93043
C         33.33558        12.05332         0.98657
C         34.57969         9.92870         0.21501
C         34.62646        12.82115         0.81847
C         33.36719        14.93015         0.76799
C         33.32812        16.37699         0.91507
C         34.56709        14.27345         0.59195
C         34.49243        17.17620         0.56536
C         33.17648        19.37749         0.19438
C         34.38200        18.60726         0.25220
C         35.63656         2.03613        -0.24503
C         35.61368         3.46586        -0.26470
C         36.87523         1.35377        -0.34032
C         36.90226         4.21336        -0.04151
C         35.67862         6.35292        -0.45820
C         35.68272         7.80515        -0.38581
C         36.84626         5.65231        -0.48097
C         36.95068         8.49237        -0.44878
C         35.76225        10.62336         0.13512
C         35.87190        12.07528         0.44212
C         37.10017         9.94571        -0.07825
C         37.03118        12.83902        -0.15532
C         35.87073        15.03326         0.61310
C         35.69235        16.50143         0.27485
C         36.95151        14.32739        -0.19790
C         36.83845        17.19673        -0.20383
C         35.54936        19.28292        -0.15233
C         36.78750        18.62993        -0.32309
C         38.10817         2.04649        -0.51238
C         38.13818         3.47080        -0.47984
C         39.33725         1.35249        -0.71790
C         39.35175         4.15770        -0.61393
C         38.09193         6.32742        -0.95789
C         38.11299         7.80606        -0.69287
C         39.36771         5.63626        -0.54824
C         39.30714         8.51479        -1.10387
C         38.06416        10.71689        -1.00776
C         38.03614        12.11289        -1.01675
C         39.14551         9.87128        -1.54303
C         39.03017        12.98945        -1.66647
C         38.02764        15.05063        -0.65973
C         38.01632        16.50708        -0.59677
C         39.13275        14.37900        -1.33233
C         39.16582        17.24594        -0.97221
C         37.96062        19.35318        -0.62345
C         39.16227        18.68192        -0.89920
C         40.52847         2.03940        -0.87246
C         40.56467         3.45665        -0.83163
C         41.78433         4.19937        -1.07014
C         40.64007         6.38842        -0.85095
C         40.48858         7.77534        -1.39308
C         41.82815         5.55790        -1.13133
C         41.45588         8.33149        -2.24182
C         40.04432        10.26811        -2.55160
C         39.93253        12.54561        -2.66011
C         41.19671         9.54515        -2.88133
C         41.03043        13.29676        -3.09437
C         40.24841        15.15038        -1.75707
C         40.33960        16.57559        -1.43797
C         41.22583        14.57359        -2.59169
C         41.50239        17.31549        -1.65832
C         40.36910        19.39803        -1.15657
C         41.52050        18.71722        -1.48976
O          5.27458         3.98397         1.02929
O         20.22224        12.44941         3.25652
O          6.07025        11.32302         0.97249
O         29.07011         8.02990         1.99791
O          4.08537        14.81523         0.44333
O          8.03056        16.76522         0.68701
O         34.09938        12.49714         2.16285
O         18.65431         2.54112         2.58137
O          5.41733        17.63862        -2.74050
O         13.50765        12.18023        -1.48759
O         13.85785         5.89177         2.61478
O          3.44556         3.66914        -2.25646
O         17.43028        14.73876         2.69952
O         28.79629        10.25322        -0.76322
O         26.74077        10.37283         2.41835
O         22.47634         8.71820        -0.39519
O          8.27346         5.79430        -1.83611
O         30.17641        14.80596        -0.58364
O         23.85326         4.30953        -1.65218
O         37.03560        12.40732         1.29377
O         23.87251        10.79324         3.28230
O          8.22634        14.54657        -2.08330
O         32.27472        18.19124         2.01863
O         40.11898         6.23933         0.52762
O         39.70865        11.35749        -3.36520
O         29.91344        18.81868         2.97613
H         30.86527        18.59333         3.11132
O          8.84590         3.03690        -1.83676
H          8.80139         3.89207        -2.32662
O         37.77055         9.89052         1.21797
H         37.77660        10.80876         1.58535
O         22.99756         1.92086        -2.17647
H         23.45339         2.66440        -2.63480
O         25.61110        11.93110        -0.66832
H         25.66459        12.81863        -1.08145
O         17.23041         5.59327         3.24722
H         16.32900         5.37503         3.56671
O         38.05690         6.16169        -2.42588
H         37.16338         6.42516        -2.73631
O          8.66501        12.16885         1.49555
H          7.77617        11.83015         1.76929
O         36.33361        15.00252         2.00303
H         36.56839        14.06409         2.20404
O         31.87474         0.37239         0.98836
H         31.88007         0.93437         1.79016
O          8.51458         2.50358         1.77217
H          8.47531         1.70890         2.34420
O         37.02382         4.30619         1.43052
H         37.20988         3.40428         1.76846
O         14.70981         4.31648        -0.56791
H         14.78062         3.41852        -0.95702
O         19.53486        17.37633         3.14515
H         18.63307        17.71551         3.32756
O         13.41373         3.24948         2.71910
H         13.36464         4.15943         3.10056
O         21.98176         9.25672         3.25098
H         22.64113         9.78743         3.80217
O         21.28797         4.88676        -1.39904
H         22.03812         5.08321        -2.00635
O         15.66254         7.87725         3.26663
H         14.88062         7.30301         3.45495
O         11.06731        11.68992        -2.16127
H         11.98540        11.55950        -2.49818
O         14.16676        16.26378        -2.10849
H         13.48645        15.71331        -2.55350
O         25.78773         8.37472        -1.27865
H         24.85026         8.51764        -1.53305
O         22.44845         5.05901         2.06194
H         22.40591         5.76820         2.73834
O         33.51907        10.03730         2.29630
H         34.04660        10.71869         2.77783
O         34.24214         5.63179        -2.13698
H         33.34947         5.28151        -2.34845
O         29.38877         4.44890        -1.96802
H         29.20480         3.56638        -2.35499
H          0.35878         1.43304        -0.89814
H          0.28875         3.86504        -1.14493
H          2.45793         0.20242        -0.48634
H          0.35382         5.84308        -1.35501
H          0.36449         8.27587        -1.34243
H          0.40500        10.13886        -1.57673
H          0.39145        12.55597        -1.64191
H          0.47066        14.43725        -2.16412
H          0.56783        16.85578        -2.47407
H          1.77632        19.05164        -2.19686
H          4.89644         0.19397        -0.06451
H          3.81305        20.33281        -1.69624
H          7.39941         0.18120         0.03995
H          6.39844        20.36966        -1.22747
H          9.90712         0.19123         0.21187
H          8.86673        20.30112        -0.87601
H         12.41040         0.24613         0.13426
H         11.31893        20.26990        -0.62183
H         14.83077         0.29005         0.36710
H         13.76029        20.24945        -0.42643
H         17.22456         0.24112         0.61864
H         16.15575        20.28068         0.07950
H         19.77147         0.25954         0.51643
H         18.56162        20.30138         0.46468
H         22.04982         0.37124        -0.05713
H         20.99661        20.31873         0.79956
H         24.44037         0.38443        -0.31962
H         23.40359        20.31204         1.10062
H         26.90357         0.34939        -0.03162
H         25.84164        20.31178         1.20344
H         29.39289         0.32580        -0.10646
H         28.23948        20.33880         1.39473
H         31.88454         0.55063        -1.05584
H         30.34788        19.94276        -0.14014
H         34.38769         0.24432        -0.20235
H         33.19205        20.29074        -0.42018
H         36.87874         0.25356        -0.35087
H         35.49796        20.36728        -0.33281
H         39.32857         0.25328        -0.74852
H         37.93024        20.45258        -0.64398
H         41.46426         1.48395        -1.03160
H         42.69987         3.62162        -1.26885
H         42.77371         6.05244        -1.40004
H         42.36845         7.77296        -2.49021
H         41.87324         9.92814        -3.65584
H         41.70733        12.87376        -3.84734
H         42.08684        15.16084        -2.93467
H         42.43024        16.81776        -1.97089
H         40.36848        20.49432        -1.07572
H         42.45602        19.26609        -1.66620
