         720
 CSIRO Nanostructure Databank - Neutral Graphene Oxide Data Set
C         23.01360        27.32619        -0.36103
C         22.97063        28.72696        -0.49685
C         22.95464        31.65627        -1.06727
C         22.92410        33.01463        -1.04132
C         22.89443        36.02703        -0.88607
C         22.84164        37.38403        -0.76965
C         22.76628        40.46123        -0.47841
C         22.79196        41.77222        -0.76612
C         22.87783        44.77729        -1.03658
C         22.87887        46.17503        -1.02906
C         25.45309        24.54472        -0.01970
C         24.28188        25.19816        -0.24719
C         25.48640        27.38629        -0.64041
C         24.21567        26.62564        -0.35000
C         25.42278        28.81101        -0.05585
C         24.14508        29.51550        -0.50109
C         25.42309        31.62142        -0.85070
C         24.14129        30.89473        -0.73900
C         25.39598        33.13095        -0.87504
C         24.09275        33.80577        -0.50255
C         25.34720        35.99394        -0.68139
C         24.12306        35.30175        -0.75947
C         25.35308        37.44761        -0.54626
C         24.04320        38.13686        -0.37907
C         25.28038        40.41447        -0.22635
C         23.98691        39.65882        -0.22413
C         25.30529        41.83621        -0.62792
C         24.05229        42.52273        -1.11821
C         25.27911        44.68311        -0.57781
C         24.04555        44.01916        -0.82263
C         25.27255        46.16990        -0.24314
C         24.04679        46.90789        -0.73470
C         25.32408        49.00193        -0.49956
C         24.11364        48.29900        -0.76854
C         28.07507        23.20009         0.50975
C         27.97979        24.48445         0.05361
C         26.71816        25.27956         0.33504
C         27.92921        27.39582        -0.21157
C         26.75482        26.69131        -0.19496
C         27.91540        28.83897        -0.37311
C         26.71796        29.54361        -0.34679
C         27.87409        31.72849        -0.43739
C         26.69754        30.96228        -0.53359
C         27.86952        33.12924        -0.57658
C         26.65889        33.87820        -0.67439
C         27.84855        36.06160        -1.06328
C         26.60447        35.28062        -0.68961
C         27.82529        37.49895        -0.58630
C         26.54953        38.15636        -0.44573
C         27.82785        40.35577        -0.53976
C         26.57684        39.62667        -0.24049
C         27.79516        41.81464        -0.92303
C         26.49719        42.53682        -0.63095
C         27.77706        44.67382        -0.35835
C         26.48956        43.97160        -0.58590
C         27.79181        46.16247        -0.37396
C         26.52624        46.87230        -0.80406
C         27.80536        48.98984        -0.07864
C         26.54277        48.35140        -0.43521
C         27.83538        50.39048         0.31696
C         30.49902        23.03968         0.20036
C         29.29221        22.44951         0.53062
C         30.47715        24.42973        -0.34674
C         29.16110        25.20322        -0.56637
C         30.45264        27.44258        -0.43028
C         29.23165        26.66052         0.05455
C         30.47801        28.92731        -0.31761
C         29.18345        29.63348        -0.63437
C         30.41550        31.75908        -0.05270
C         29.11200        30.99366         0.05263
C         30.32723        33.23379         0.24944
C         29.16393        33.84949        -0.53187
C         30.28262        36.08459        -0.08520
C         29.15117        35.31529        -0.74138
C         30.29119        37.48035        -0.65640
C         29.00524        38.21455        -0.51096
C         30.29427        40.39841        -0.46902
C         29.00649        39.66214        -0.53485
C         30.29279        41.86799        -0.61922
C         29.06450        42.57108        -0.59938
C         30.29880        44.69517        -0.41257
C         29.06469        43.96264        -0.50683
C         30.31321        46.11077        -0.27150
C         29.08321        46.90010        -0.65022
C         30.23460        48.85704         0.59802
C         29.00413        48.29369        -0.07943
C         30.27564        50.37045         0.63507
C         29.00218        51.04409         0.59095
C         33.04390        20.29327         0.60383
C         31.85509        20.93722         0.48479
C         32.98876        23.11023         0.38546
C         31.76865        22.36835         0.32262
C         32.89648        24.58453         0.46874
C         31.74710        25.21575        -0.23682
C         32.98752        27.46532        -0.08946
C         31.75566        26.70861        -0.41549
C         32.95346        28.92419        -0.39344
C         31.64660        29.64235        -0.32952
C         32.86711        31.88044        -0.02877
C         31.62213        31.11728        -0.18574
C         32.88315        33.25186         0.13842
C         31.63274        33.98622         0.06823
C         32.84598        36.10209        -0.23428
C         31.60851        35.34924        -0.15001
C         32.85098        37.49159        -0.49937
C         31.58181        38.19020        -0.79419
C         32.83637        40.37593        -0.86340
C         31.59145        39.65998        -0.57332
C         32.77345        41.83725        -0.94637
C         31.51915        42.56705        -0.60747
C         32.80381        44.68734        -0.26842
C         31.52929        43.96801        -0.47360
C         32.81538        46.16643        -0.28194
C         31.53674        46.85049        -0.13652
C         32.75342        49.05965        -0.02220
C         31.51079        48.21734         0.10651
C         32.74872        50.19976         0.99799
C         31.47826        51.02064         0.87282
C         32.76435        53.06625         1.32811
C         31.57054        52.43263         1.11365
C         35.48825        19.09542         1.81127
C         35.41333        20.58215         1.58322
C         34.37082        20.99317         0.50321
C         35.43428        23.27975         0.69891
C         34.23388        22.49849         0.55175
C         35.40818        24.66504         0.67655
C         34.14097        25.40058         0.66935
C         35.33171        27.64560         0.72306
C         34.12316        26.85451         0.34551
C         35.40266        29.10371         0.40442
C         34.22170        29.70480        -0.31811
C         35.45302        31.92953        -0.29458
C         34.15034        31.19988        -0.32543
C         35.50206        33.30831         0.28157
C         34.14276        34.01374         0.58308
C         35.11749        36.35284         0.44446
C         34.06105        35.48757         0.19701
C         35.26495        37.63248        -0.15580
C         34.04403        38.24980        -0.55288
C         35.31843        40.33623        -0.91024
C         34.04715        39.67282        -0.82932
C         35.34966        41.78318        -0.96384
C         34.08200        42.55349        -0.98027
C         35.33758        44.71672        -0.73600
C         34.13157        43.95877        -0.46700
C         35.26184        46.20534        -0.87418
C         34.01222        46.86150        -0.30690
C         35.23696        48.93972         0.27095
C         34.05033        48.27411        -0.00817
C         35.24726        50.30853         0.75081
C         34.03847        51.00261         0.93937
C         35.27187        53.08227         1.40067
C         34.03406        52.38639         1.24445
C         35.32270        54.49667         1.60610
C         37.92795        19.03059         1.47958
C         36.62979        18.39374         1.78266
C         37.92313        20.50108         1.26244
C         36.74689        21.19707         1.18643
C         37.90814        23.28752         0.56994
C         36.73536        22.60215         0.81063
C         37.93829        24.76823         0.29102
C         36.66849        25.42411         0.80584
C         37.92021        27.61879         0.70654
C         36.62658        26.92146         0.89035
C         38.05559        29.09169         0.48846
C         36.73512        29.83081         0.34152
C         37.86256        31.60518        -0.96403
C         36.71885        31.11861        -0.37365
C         37.77552        32.95435        -1.62563
C         36.73044        33.81973         0.65208
C         37.89196        35.94353        -0.19638
C         37.04267        35.25202         0.61136
C         37.86846        37.49880        -0.04954
C         36.54214        38.23572        -0.38973
C         37.77458        40.27518        -1.22452
C         36.52893        39.57311        -0.84937
C         37.79001        41.79410        -1.11867
C         36.51852        42.50869        -0.95674
C         37.79313        44.62079        -0.54946
C         36.57320        44.00677        -1.21998
C         37.66272        45.94244         0.06971
C         36.56523        46.85449        -0.39375
C         37.73524        48.79247         0.82555
C         36.54226        48.25015         0.12217
C         37.70250        50.20843         1.13760
C         36.49912        50.95087         1.06634
C         37.73086        53.02481         1.65741
C         36.50558        52.35562         1.38433
C         37.75592        54.45316         1.87566
C         36.50696        55.15322         1.81093
C         40.49150        16.37962         2.62777
C         39.32331        16.97985         2.35035
C         40.46415        19.23566         2.00555
C         39.23896        18.35377         1.77370
C         40.48339        20.51958         1.19863
C         39.19279        21.11678         0.80678
C         40.46427        23.37834         0.12586
C         39.17805        22.57790         0.38728
C         40.46002        24.84913         0.58055
C         39.20152        25.46351         0.79388
C         40.86225        27.94234         0.57358
C         39.02327        26.85597         1.06805
C         40.56241        29.01192        -0.21808
C         39.27154        29.71060        -0.16612
C         40.33695        31.62001        -1.42477
C         39.14595        30.92997        -0.83277
C         40.29792        33.14613        -1.70784
C         38.98888        33.87506        -1.53420
C         40.33790        35.95967        -0.92254
C         38.99878        35.29203        -1.00449
C         40.25462        37.37977        -0.92733
C         39.05063        38.07408        -0.77709
C         40.20733        40.21562        -0.48457
C         39.09117        39.50611        -1.24183
C         40.18145        41.71971        -0.34781
C         39.01585        42.50881        -0.73565
C         40.14777        44.51210         0.27433
C         38.96941        43.87539        -0.34601
C         40.13149        45.80259         0.72144
C         38.86373        46.57058         0.74819
C         40.07338        48.61158         1.70951
C         38.87339        48.03533         0.98227
C         40.12534        50.10919         1.56973
C         38.93310        50.86147         1.45403
C         40.19154        52.93262         1.88145
C         38.95648        52.28339         1.65649
C         40.22298        54.34272         2.41830
C         38.97134        55.13271         2.11463
C         40.27796        57.19856         2.26311
C         39.06404        56.55253         2.21672
C         42.96563        16.26636         2.04479
C         41.81896        17.10190         2.55312
C         42.91284        19.01090         1.17770
C         41.68308        18.37433         1.72906
C         42.94022        20.48285         1.07274
C         41.66809        21.19586         0.97176
C         42.89720        23.28833         0.60403
C         41.70733        22.61243         0.58635
C         42.90901        24.72378         0.30365
C         41.71586        25.50952         0.42427
C         43.01328        27.51960        -0.50962
C         42.02798        27.01913         0.51578
C         42.95405        28.77770        -1.02936
C         41.61095        29.46723        -1.22670
C         42.83802        31.65782        -1.59721
C         41.68772        30.98660        -1.29382
C         42.78632        33.11264        -2.10050
C         41.56479        33.87728        -1.59950
C         42.80472        35.98821        -1.19995
C         41.57356        35.25845        -1.24426
C         42.81398        37.45184        -1.24636
C         41.47866        38.19680        -1.17789
C         42.70489        40.27598        -0.45147
C         41.50040        39.56064        -0.66094
C         42.69782        41.65538        -0.24328
C         41.47189        42.49089        -0.42240
C         42.67249        44.49613         0.49104
C         41.40003        43.68084         0.54113
C         42.66237        45.79291         0.90319
C         41.36231        46.39604         1.40094
C         42.59234        48.59761         1.47454
C         41.38383        47.90911         1.39851
C         42.57672        50.02075         1.73842
C         41.35689        50.76825         1.70875
C         42.65370        52.86130         1.99077
C         41.38772        52.20018         1.81769
C         42.70645        54.32886         1.73642
C         41.49563        55.09034         2.08641
C         42.76988        57.18823         1.96426
C         41.51424        56.47317         2.09399
C         44.06298        16.82654         1.48542
C         45.35512        18.90816         0.91117
C         44.18035        18.25505         1.23482
C         45.37612        20.35871         0.75951
C         44.15312        21.11949         0.97831
C         45.43303        23.20145         0.46884
C         44.18462        22.62105         1.07923
C         45.40611        24.65604         0.20948
C         44.12588        25.31766        -0.07187
C         45.49386        27.33220        -1.11071
C         44.16049        26.63403        -0.70720
C         45.48835        28.78589        -1.35502
C         44.15986        29.41188        -1.64736
C         45.40974        31.65857        -2.06903
C         44.09769        30.90262        -1.92229
C         45.44197        33.16342        -1.97525
C         44.10885        33.90415        -1.94630
C         45.39895        36.09596        -1.39325
C         44.08255        35.36005        -1.60442
C         45.38301        37.59189        -1.01536
C         44.01103        38.17770        -0.81580
C         45.09595        40.14603         0.16164
C         43.97246        39.52664        -0.43028
C         45.02069        41.56343         0.49360
C         44.01849        42.37148        -0.31459
C         45.17080        44.47087         0.66472
C         43.96071        43.92420        -0.07250
C         45.14719        45.88949         0.94033
C         43.90728        46.56131         1.00405
C         45.12681        48.67068         1.47872
C         43.88458        47.94431         1.30552
C         45.00962        49.95710         2.05516
C         43.77487        50.66731         2.10350
C         45.68781        53.23478         1.77645
C         43.74926        52.09124         2.31238
C         45.33595        54.47180         1.21567
C         43.98266        55.10586         1.41499
C         43.93815        56.55223         1.70070
C         47.68031        18.77391         0.15703
C         46.61061        18.19488         0.73214
C         47.67956        20.20918        -0.29360
C         46.54567        21.00106         0.36418
C         47.80579        23.06505        -0.34471
C         46.55963        22.44580         0.26379
C         47.98996        24.57723         0.06231
C         46.69506        25.37074        -0.07033
C         47.94945        27.39177        -0.81743
C         46.72704        26.67758        -0.74022
C         47.94700        28.81915        -1.10792
C         46.67860        29.48819        -1.35010
C         47.96324        31.70219        -1.66540
C         46.72228        30.83913        -2.05030
C         47.83669        33.12090        -1.20105
C         46.69098        33.82779        -1.42928
C         47.94970        36.07171        -0.79892
C         46.69009        35.32380        -1.28900
C         47.61700        37.22731         0.15771
C         46.31582        37.93368         0.13844
C         47.54775        40.10436         0.72372
C         46.21954        39.33506         0.77744
C         47.55128        41.47255         0.82716
C         46.30724        42.26898         0.90677
C         47.60092        44.43178         1.23574
C         46.32396        43.74018         0.82236
C         47.58371        45.89905         0.92267
C         46.39441        46.61696         1.02777
C         47.65710        48.76402         0.93609
C         46.41187        48.06491         1.15858
C         47.77739        50.23055         0.97153
C         46.96370        51.08072         1.67201
C         47.71751        53.12072         0.45892
C         46.81483        52.50184         1.35605
C         47.42924        54.39309        -0.04036
C         46.22527        55.03302         0.28387
C         50.25022        20.18788        -0.29146
C         49.05773        20.85086        -0.15159
C         50.41718        23.02683        -0.10983
C         49.08228        22.30721         0.03285
C         50.44373        24.47235        -0.41832
C         49.14357        25.18201        -0.76492
C         50.40290        27.40119        -0.55284
C         49.14501        26.68413        -0.63560
C         50.41146        28.84283        -0.87041
C         49.18483        29.49982        -1.15288
C         50.45623        31.69816        -0.86076
C         49.24479        30.96670        -1.39430
C         50.32128        33.10858        -0.38698
C         48.91097        33.67964        -0.24972
C         50.08974        35.76692         0.45120
C         48.99990        35.18180        -0.16075
C         50.03214        37.20502         0.81872
C         48.81085        37.98806         0.59255
C         50.07597        40.10547         0.77253
C         48.80909        39.36580         0.70516
C         50.08247        41.51531         0.65988
C         48.79718        42.22967         0.56927
C         50.09296        44.43700         0.63834
C         48.79804        43.72201         0.64543
C         50.07294        45.83493         0.45251
C         48.75598        46.54969         0.26595
C         50.03710        48.65513         0.11840
C         48.81484        48.03975         0.49118
C         50.11909        50.12629         0.08770
C         48.80021        50.88242         0.05413
C         50.02863        52.91726        -0.66602
C         49.03893        52.38994         0.34796
C         51.51591        20.86085        -0.36464
C         52.90473        22.96083        -0.42697
C         51.63689        22.23428        -0.34836
C         52.90978        24.38484        -0.43772
C         51.65340        25.10990        -0.50911
C         52.96203        27.29451        -0.73345
C         51.67288        26.59665        -0.47527
C         52.91567        28.80739        -0.65820
C         51.62970        29.53813        -0.66881
C         52.76689        31.59507         0.11836
C         51.65001        30.93220        -0.46531
C         52.63722        32.94613         0.58212
C         51.43362        33.68323         0.42575
C         52.52963        35.81337         1.03069
C         51.32627        35.05861         0.76871
C         52.57269        37.19149         0.87970
C         51.33056        37.96500         0.97839
C         52.53808        40.14294         0.73970
C         51.31850        39.42611         0.80424
C         52.52714        41.54412         0.71662
C         51.29450        42.24502         0.67629
C         52.49847        44.38620         0.24750
C         51.29073        43.70155         0.58435
C         52.45502        45.76320        -0.11433
C         51.24929        46.50741         0.06320
C         52.38115        48.54867        -0.78540
C         51.21418        47.92040        -0.20070
C         52.39377        49.94346        -1.07524
C         51.30119        50.79777        -0.55623
C         51.07917        52.17895        -1.06036
C         55.34452        22.98904        -0.24252
C         54.14274        22.28933        -0.36710
C         55.37624        24.38778        -0.21201
C         54.15006        25.10061        -0.35194
C         55.36480        27.25408        -0.13620
C         54.17413        26.53515        -0.38079
C         55.26019        28.68413         0.23201
C         54.07023        29.50224        -0.07173
C         55.15411        31.43835         1.01738
C         53.98221        30.82026         0.32946
C         55.05444        32.85396         1.50301
C         53.75611        33.58954         1.32139
C         55.05257        35.84161         1.50377
C         53.76008        35.09933         1.45052
C         55.06882        37.17527         1.22288
C         53.84968        37.90124         0.80304
C         55.09811        40.17062         1.16153
C         53.83668        39.40242         0.68247
C         55.04380        41.53670         0.56251
C         53.81841        42.34831         0.88153
C         54.81040        44.24589        -0.48932
C         53.72142        43.66617         0.15173
C         54.72136        45.57251        -0.98823
C         53.57673        46.36215        -0.75658
C         54.57915        48.34859        -1.89365
C         53.51164        47.75547        -1.16416
C         54.54713        49.72030        -2.17609
C         53.47678        50.50913        -1.75642
C         57.90221        24.56352        -0.53979
C         56.67080        25.10241         0.14278
C         57.82454        27.35913         0.03615
C         56.59961        26.60511         0.01771
C         57.80198        28.76309         0.13678
C         56.56643        29.43902         0.48356
C         57.66585        31.59199         0.91013
C         56.50436        30.89226         0.71624
C         57.65843        32.89767         1.61639
C         56.33278        33.60782         1.82215
C         57.50825        35.71210         0.94499
C         56.38980        35.16917         1.87669
C         57.46661        37.05739         0.53065
C         56.35863        37.89286         1.04270
C         57.40209        39.92168        -0.10573
C         56.37509        39.37781         0.82627
C         57.30716        41.24880        -0.58900
C         55.97035        41.96962        -0.53136
C         57.26796        44.10902        -1.26525
C         56.08962        43.48818        -0.58002
C         57.05212        45.37289        -2.00227
C         55.76772        46.06222        -1.89932
C         56.91047        48.03944        -3.01208
C         55.67285        47.49953        -2.43505
C         59.03728        25.30917        -0.62217
C         60.26775        27.46351        -0.32005
C         59.06841        26.69705        -0.24975
C         60.26398        28.83467        -0.24921
C         59.00320        29.56201        -0.09853
C         60.18508        31.77840         0.70257
C         58.93724        31.06821         0.34845
C         60.17210        32.99602         1.26358
C         58.92854        33.76166         1.63076
C         59.73979        35.55466        -0.00165
C         58.70309        34.99175         0.75965
C         59.65646        36.86093        -0.47004
C         58.54833        37.66853        -0.14017
C         59.54506        39.67893        -1.22045
C         58.49853        39.09770        -0.47942
C         59.51896        41.02321        -1.55772
C         58.39061        41.81668        -1.29562
C         59.13526        43.66549        -2.91134
C         58.53521        43.30979        -1.57108
C         58.99380        44.90496        -3.42243
C         57.97656        45.82561        -2.92933
C         57.91425        47.19452        -3.38448
O         44.05842        34.91410        -3.01187
O         51.19067        50.67521         0.92230
O         38.77592        35.01387        -2.43059
O         40.05646        27.60539         1.65916
O         27.75840        45.50196         0.91245
O         55.79129        28.81603         1.58363
O         29.58205        34.43124        -1.81915
O         33.20659        25.10625         1.79307
O         36.78988        33.32083        -2.22870
O         33.33632        42.39860        -2.23028
O         57.00343        32.92871         2.91208
O         58.82089        30.68690        -1.04549
O         45.49817        32.49690        -3.28023
O         44.90140        52.70749         2.80635
O         46.11053        50.55230         2.66432
O         49.80754        22.72770         1.21282
O         50.56350        37.49744         2.15687
O         36.96220        47.92985        -1.29682
O         37.80071        45.90734         1.54304
O         43.09085        54.66128         0.33186
O         38.72067        18.36078         0.42038
O         46.55616        36.88630         1.13041
O         39.94827        40.83114         0.80583
O         53.41525        34.23702         2.58754
O         33.80508        29.15057        -1.59630
O         46.25163        35.90077        -2.56176
O         44.66787        26.59083        -2.07359
O         31.40693        24.52746        -1.48185
O         55.16883        46.36902        -3.21618
O         33.55682        44.12721         0.88506
O         47.60576        22.92416        -1.73940
O         51.08370        27.11152         0.76852
O         41.92974        18.29105         0.30993
O         56.89497        38.80310         2.07702
O         31.04116        40.00793         0.76023
O         34.70633        31.81726        -1.55012
O         36.11328        35.98981         1.37445
O         39.10153        21.50311        -0.61671
O         30.88908        37.66542        -1.98427
O         56.79428        35.57565         3.15153
O         26.01586        40.15471         1.02016
O         43.92595        29.92236        -3.00470
O         40.16783        32.14722        -2.76888
O         23.85754        38.79456         0.94121
O         37.48709        29.88667         1.59438
O         53.11919        28.09144        -1.95050
O         37.71515        41.08879        -2.44098
O         31.08550        27.04650        -1.68725
O         48.58534        43.08195        -0.65744
O         57.11561        44.15257         0.21603
O         54.03726        38.63498        -0.52612
O         42.15193        38.01300        -2.45762
O         50.78740        32.83976        -1.73430
O         54.86768        31.73211         2.42269
O         48.95252        31.48294        -2.72784
O         46.06581        25.49924         1.28676
O         25.42648        32.40444        -2.12338
O         45.28951        41.84998         1.88725
O         35.05272        28.66154         1.74979
O         36.72557        26.07563         2.11208
O         25.34726        28.72458         1.38992
H         24.54400        28.21096         1.61910
O         24.03019        33.70014         0.96244
H         23.26588        34.23027         1.27300
O         44.49311        42.18081        -1.68134
H         43.84729        42.64068        -2.26487
O         26.71619        25.46118         1.81318
H         26.60154        24.57635         2.22234
O         32.74738        49.57460         2.30844
H         32.63119        50.27393         2.98406
O         41.28278        43.15676         1.88124
H         41.13116        43.91983         2.48669
O         28.91154        30.75215         1.47076
H         28.90380        31.62949         1.91786
O         25.24069        46.29597         1.19705
H         26.06933        45.88156         1.54341
O         40.43248        19.61492         3.41743
H         41.14307        20.27395         3.57275
O         27.77168        41.78550        -2.40941
H         28.59746        41.35374        -2.71877
O         24.13364        42.43477        -2.59026
H         24.98650        42.83658        -2.86540
O         29.15716        47.05420        -2.11860
H         29.93984        47.61104        -2.32000
O         48.59431        36.66709        -1.94493
H         47.89305        36.81133        -2.62659
O         53.86605        42.70730         2.30021
H         54.20748        41.91534         2.78680
O         29.22767        29.88519        -2.06760
H         29.64311        29.11431        -2.50991
O         48.41039        24.67563         1.41840
H         47.61250        24.83951         1.97439
O         25.54948        27.49374        -2.08972
H         26.42419        27.86727        -2.33029
O         40.22710        54.17569         3.89282
H         40.15011        55.07241         4.28385
O         45.96087        38.32441        -2.13124
H         45.42482        38.13137        -2.93072
O         37.82187        33.04163         0.98077
H         38.51283        33.61136         1.37332
O         46.90651        30.40394        -3.41118
H         46.82214        31.19376        -3.99091
O         35.13832        46.47559        -2.31154
H         35.82383        47.15559        -2.52635
O         59.14956        34.27146         2.95409
H         58.30564        34.73823         3.24628
O         42.60422        32.93304        -3.52696
H         43.49193        32.77956        -3.92404
O         44.25419        22.93667         2.51933
H         44.54855        23.87031         2.59965
O         41.22638        45.97581         2.81811
H         41.99784        46.33729         3.30643
O         47.37697        20.24903        -1.71881
H         47.39255        21.22148        -1.97329
O         39.57860        39.46227        -2.60918
H         39.00466        40.05467        -3.15119
O         59.53942        43.75937        -0.61151
H         59.07180        43.87216         0.24803
O         28.92558        25.32958        -1.97569
H         29.81370        25.40222        -2.40167
O         29.94308        36.23185         1.31824
H         29.89687        35.32792         1.71633
O         41.17253        29.04855        -2.54239
H         41.85527        29.34717        -3.18735
O         48.48806        46.40225        -1.19840
H         48.54582        45.44258        -1.40672
O         45.88249        39.15184         2.17170
H         46.26210        38.28396         2.44445
O         26.44079        46.77029        -2.24613
H         27.31247        47.04981        -2.61422
O         47.73915        44.26688         2.68523
H         46.93939        44.63995         3.11209
O         48.97003        24.99864        -2.18515
H         48.44841        24.14176        -2.32942
O         54.94592        40.25351         2.60024
H         55.66336        39.68294         2.98662
O         27.77028        36.16799        -2.51557
H         28.28606        35.41000        -2.88188
O         55.28838        41.63825        -1.79959
H         55.08101        40.67796        -1.79481
O         48.42751        33.20897         1.05942
H         48.92484        33.68624         1.75904
O         40.53617        23.49286        -1.32946
H         40.35198        22.59169        -1.68697
O         41.54541        43.05692        -1.76253
H         41.44727        42.32937        -2.41284
O         48.30356        50.79878        -1.30651
H         48.09476        49.85969        -1.49870
O         42.15019        17.49667         3.91815
H         41.41929        18.08007         4.22994
O         42.73217        27.19365         1.79326
H         42.04498        27.15227         2.49557
O         38.11904        37.79041         1.35705
H         37.34003        37.46763         1.86530
O         39.81671        48.34967         3.13725
H         39.85798        47.37090         3.26046
O         36.71785        44.16687        -2.66596
H         35.92209        43.78866        -3.09704
O         32.68411        49.68873        -1.34669
H         32.96749        49.02556        -2.01129
O         44.06402        44.56498        -1.38087
H         44.97892        44.43067        -1.70939
O         29.94655        33.38032         1.67122
H         30.71514        33.09114         2.21101
O         56.87594        24.83938         1.58313
H         56.15973        25.29645         2.07402
O         34.96096        20.61260        -0.76888
H         34.34996        20.88012        -1.48661
O         34.96193        21.19747         2.81420
H         35.60198        20.98242         3.52354
O         49.58797        52.56041         1.67464
H         50.43926        52.05644         1.71406
O         30.10016        48.42147         2.00222
H         29.25528        48.78616         2.34172
O         34.05151        33.96758         2.04441
H         34.72398        34.59040         2.40032
O         37.93287        24.93988        -1.15680
H         38.74035        24.48787        -1.50789
O         29.40464        26.51962         1.48065
H         28.52568        26.28799         1.87104
H         22.06693        26.77113        -0.27789
H         21.98960        29.20868        -0.61309
H         22.03909        31.11187        -1.34317
H         21.98668        33.52932        -1.29692
H         21.96438        35.47475        -1.08216
H         21.87841        37.90784        -0.83590
H         21.80054        39.97220        -0.28058
H         21.83569        42.30598        -0.86893
H         21.93955        44.26040        -1.28226
H         21.95705        46.71469        -1.29365
H         25.45951        23.44527         0.01912
H         23.34900        24.62298        -0.35916
H         25.26433        50.09346        -0.37717
H         23.20449        48.87972        -0.98699
H         27.18579        22.71621         0.94470
H         26.89551        50.95845         0.32611
H         29.25896        21.42558         0.92594
H         28.96176        52.12529         0.78579
H         33.05186        19.19519         0.66806
H         30.92577        20.34912         0.49254
H         32.74670        54.14431         1.53539
H         30.64991        53.03261         1.14028
H         34.54829        18.58258         2.06585
H         34.39508        55.08377         1.59168
H         36.61222        17.30804         1.95771
H         36.48527        56.24111         1.95802
H         40.49642        15.34737         3.01154
H         38.38676        16.40963         2.44819
H         40.31401        58.29579         2.31898
H         38.14938        57.16184         2.20685
H         42.93105        15.18028         2.21758
H         42.76258        58.27422         2.14021
H         44.90684        16.17639         1.21141
H         44.88620        57.10982         1.71212
H         48.58084        18.16932        -0.02229
H         46.65953        17.13548         1.02164
H         48.12801        54.89089        -0.72632
H         45.98135        55.99730        -0.18351
H         50.26751        19.09509        -0.41059
H         49.91320        53.94027        -1.05377
H         52.40854        20.23212        -0.49525
H         51.79066        52.59097        -1.79075
H         56.27869        22.42187        -0.12703
H         54.16863        21.19127        -0.35377
H         55.36798        50.18914        -2.73473
H         53.49483        51.58605        -1.96966
H         57.90774        23.52151        -0.89131
H         57.00003        49.11730        -3.20764
H         59.95611        24.86619        -1.03558
H         61.21610        26.93590        -0.49895
H         61.19383        29.39862        -0.39988
H         61.14236        31.29566         0.45800
H         61.12720        33.47640         1.52399
H         60.65412        34.97217        -0.18484
H         60.50942        37.27125        -1.02543
H         60.42077        39.08400        -1.50812
H         60.38978        41.46761        -2.05776
H         59.85086        42.96557        -3.36635
H         59.55590        45.20322        -4.32029
H         58.78437        47.58912        -3.92988
