         282
 CSIRO Nanostructure Databank - Neutral Graphene Oxide Data Set
C        -11.15941         0.69034        -0.93683
C         -9.93168         1.53649        -0.69995
C         -8.68927         0.70208        -0.95903
C         -7.33489         1.52217        -1.06236
C         -6.04551         0.78877        -0.79985
C         -4.80179         1.55789        -0.47279
C         -3.52483         0.86338        -0.03666
C         -2.42672         1.64098         0.64298
C         -1.22091         0.93855         1.29421
C          0.07978         1.66272         0.85580
C          1.37541         0.93145         0.64728
C          2.53431         1.63229         0.00319
C          3.63558         0.94777        -0.41174
C          4.88805         1.62876        -1.00194
C          6.18159         0.94125        -0.58527
C          7.50273         1.60768        -1.00759
C          8.68546         1.00146        -0.22500
C         10.02830         1.64545        -0.64354
C         11.19148         0.84156        -0.08043
C         -9.85367         2.87927        -1.36756
C         -8.66815         3.63863        -1.19762
C         -7.43714         2.94012        -0.87053
C         -6.28927         3.68553        -0.33786
C         -4.84975         3.09783        -0.45825
C         -3.87705         3.81143         0.50434
C         -2.61117         3.11988         1.08413
C         -1.29728         3.87375         0.71440
C         -0.01995         3.13497         0.48515
C          1.04616         3.65182        -0.49041
C          2.44857         3.16591         0.01952
C          3.59251         3.76700        -0.81459
C          4.91354         3.05226        -0.40778
C          6.18109         3.84810        -0.69592
C          7.49058         3.14230        -0.86750
C          8.72569         3.88710        -0.44996
C         10.03336         3.12554        -0.15873
C         -8.69025         5.05017        -1.31096
C         -7.68417         5.93565        -0.61785
C         -6.40465         5.18449        -0.25024
C         -5.09880         5.92548        -0.52666
C         -3.92575         5.29750         0.25999
C         -2.64150         6.06321         0.24062
C         -1.36132         5.31644         0.30529
C         -0.28722         5.94791        -0.57025
C          1.04730         5.19567        -0.66876
C          2.32540         5.98393        -0.67931
C          3.65863         5.28198        -0.69510
C          4.93579         6.00954        -0.42645
C          6.20291         5.24183        -0.07418
C          7.43393         6.06223        -0.52406
C          8.68147         5.22985        -0.26232
C         -7.44241         7.31297        -1.21762
C         -6.34800         8.06928        -0.91480
C         -5.17939         7.44114        -0.19673
C         -3.87618         8.14329        -0.57907
C         -2.60190         7.40938        -0.42624
C         -1.33451         8.15285        -0.23626
C         -0.18227         7.42673        -0.21159
C          1.07611         8.04255         0.30560
C          2.33362         7.45052        -0.32051
C          3.62206         8.14521         0.01178
C          4.90387         7.42165        -0.01846
C          6.12002         8.08908         0.26866
C          7.34788         7.43069         0.12832
C         -6.22069         9.49205        -1.20714
C         -5.09442        10.23283        -0.95625
C         -3.83248         9.62563        -0.58520
C         -2.63920        10.28397        -0.36238
C         -1.36745         9.60766        -0.13092
C         -0.16401        10.26483         0.07524
C          1.08744         9.55756         0.28950
C          2.27829        10.18496         0.54447
C          3.54169         9.40361         0.87808
C          4.85047        10.16008         0.77427
C          6.02527         9.52317         0.58973
C        -11.13332        -0.61944        -0.61504
C         -9.90769        -1.29404        -0.15825
C         -8.66387        -0.61403        -0.37981
C         -7.40051        -1.24861         0.02527
C         -6.11040        -0.69352        -0.50199
C         -4.84158        -1.41234        -0.15844
C         -3.47712        -0.68484        -0.22905
C         -2.43634        -1.36401         0.65092
C         -1.23407        -0.60421         1.11580
C          0.09065        -1.33602         1.12865
C          1.36633        -0.57676         0.81083
C          2.58039        -1.30630         0.28608
C          3.62600        -0.54014        -0.47420
C          4.90450        -1.28201        -0.73142
C          6.17377        -0.53702        -0.47393
C          7.46210        -1.29372        -0.42514
C          8.72069        -0.52168        -0.29940
C          9.83311        -1.20045         0.49884
C         11.12821        -0.43592         0.32638
C         -9.92834        -2.60989         0.25561
C         -8.73822        -3.34808         0.82957
C         -7.40393        -2.64302         0.58420
C         -6.14138        -3.43725         0.51516
C         -4.93532        -2.77712         0.43204
C         -3.69583        -3.56343         0.80744
C         -2.37778        -2.85983         0.54120
C         -1.22706        -3.54518         0.73130
C          0.07284        -2.84431         0.92678
C          1.33356        -3.55786         0.49713
C          2.59699        -2.80001         0.20677
C          3.60239        -3.47642        -0.71400
C          4.96537        -2.78528        -0.63584
C          6.21938        -3.48042        -0.21729
C          7.42295        -2.66446         0.27878
C          8.73644        -3.40634         0.05741
C          9.87766        -2.68970         0.16630
C         -8.68545        -4.80201         0.43422
C         -7.53229        -5.52235         0.40771
C         -6.20924        -4.90195         0.50022
C         -5.05454        -5.65398         0.30546
C         -3.72591        -4.93761         0.14255
C         -2.52135        -5.77544         0.56272
C         -1.17132        -5.06976         0.85421
C         -0.11552        -5.56483        -0.17230
C          1.26040        -4.96394         0.02220
C          2.40075        -5.66218        -0.23015
C          3.69356        -4.97108        -0.43782
C          4.96391        -5.66507        -0.08046
C          6.17689        -4.87608         0.39964
C          7.45966        -5.65794         0.12099
C          8.69610        -4.87933        -0.34172
C         -7.60650        -7.00840         0.31477
C         -6.35288        -7.80978         0.14771
C         -5.06960        -7.07722         0.04220
C         -3.91281        -7.78626        -0.24316
C         -2.58770        -7.17478         0.03292
C         -1.35770        -7.89079        -0.42710
C         -0.09131        -7.10535        -0.34715
C          1.13237        -7.86450         0.07871
C          2.41614        -7.11967         0.06170
C          3.70009        -7.90082        -0.09856
C          4.90361        -7.09051         0.37462
C          6.21494        -7.81174         0.48413
C          7.44387        -7.01360         0.18138
C         -6.36232        -9.21606        -0.31038
C         -5.20721        -9.89312        -0.48480
C         -3.90347        -9.23920        -0.36775
C         -2.74750        -9.97921        -0.29910
C         -1.34579        -9.43357        -0.49197
C         -0.22113       -10.01298         0.40203
C          1.14213        -9.36160         0.12796
C          2.32855       -10.00673         0.27121
C          3.63856        -9.27499         0.59877
C          4.95660        -9.96470         0.27952
C          6.12326        -9.28602         0.25497
O          1.64618         5.62911        -1.93654
O         -6.58999         4.38262         0.93714
O          0.93099        -3.50685         1.89778
O         -2.29312        -1.05287         2.06259
O         -0.75813        -5.39367         2.17623
H         -1.31189        -6.14207         2.49945
O         -0.23545         3.84614         1.74110
O          5.92485        -3.34576        -1.62211
O         -7.28561        -1.48478         1.49150
O         -5.46442        -1.49128        -1.52478
O          6.07536         0.34806         0.73076
O         -2.67279        -6.86235         1.50148
O          2.96574         8.29802        -1.30949
O         -8.02937         0.95590        -2.21676
O         11.12469         3.79610        -0.78130
H         11.19853         3.41014        -1.68469
O          1.06964         1.56145         1.93932
O         -1.81933         6.10939         1.44779
O          8.35688        -1.15808        -1.56133
O          6.29160         5.13319         1.35416
H          5.71234         4.38319         1.64496
O          6.75917         3.74526        -2.02073
O          3.46301         8.99716         2.26888
H          2.61118         8.51035         2.40434
O          1.00491        -0.93384         2.17654
O          4.02151        -0.91919        -1.83947
O         -5.07840         1.07783        -1.85057
O          1.10071         7.70698         1.78918
O         -0.69224        -7.40236        -1.65168
O          4.47520         5.79793        -1.81147
O         -8.96750        -3.34508         2.27204
H         -8.61065        -2.49067         2.60777
O          4.56931        -5.57946        -1.48340
O          7.35203         6.35212        -1.93779
H          7.23386         5.48843        -2.40473
O         -2.40875         1.48163        -0.78969
O          7.64867         1.29322        -2.40413
H          6.85728         1.65586        -2.87019
O         -2.79708         3.18200         2.48912
H         -1.97105         2.87586         2.93086
O         -6.57251         8.24914         1.56551
H         -7.25673         7.52730         1.45614
O         -3.75241        -3.78304         2.23670
H         -3.44293        -2.96885         2.69017
O          3.29767         3.53211        -2.21110
H          3.73333         4.26046        -2.71663
O          3.20779        -2.13361         1.33183
O          1.69169        -7.32814         1.33624
O          5.45529        -7.35709         1.66950
O         -3.18980         7.55966        -1.75545
O          4.90621         2.88696         1.03140
H          5.37781         2.05587         1.27704
O         -9.87872         1.80675         0.74840
H        -10.71025         2.25989         1.00266
O          0.71636         3.03899        -1.73806
H          1.34962         3.38685        -2.40982
O          7.22991        -2.43581         1.65971
O         -8.35329         6.22697         0.67054
H         -8.16928         5.44248         1.24513
O         -4.36576         4.73446         1.50832
O          1.27247         6.27577         1.91314
H          0.39884         5.96428         2.27050
O         -7.02374        -7.65979         1.46795
O          5.99275        -4.70073         1.80791
H          6.50632        -3.88302         2.08977
O         -0.53094        -4.94607        -1.41684
H         -0.73477        -5.66248        -2.06539
O          3.58383        -9.13055         2.03113
H          2.91245        -8.43702         2.23843
O          4.89960         1.58708        -2.42998
H          4.09180         2.04815        -2.76192
O          2.58520         3.69426         1.34243
H          2.08094         3.11012         1.96253
O          8.72059        -4.93717        -1.78258
H          7.98363        -4.38715        -2.12564
O         -1.00977        -9.86811        -1.83381
H         -0.76726        -9.07159        -2.36130
O         -5.01298         5.79968        -1.95309
H         -4.18707         6.24143        -2.27240
O         -5.32293         7.57815         1.27451
O          9.47235        -1.04875         1.90643
H          8.63905        -1.59442         2.05881
O         -0.87362         5.86309        -1.89373
H         -0.15927         6.05820        -2.54294
O         -3.54297        -4.75286        -1.28637
H         -4.16158        -4.05525        -1.59313
O         -0.55757        -9.72499         1.75939
H          0.20091        -9.95826         2.33303
O         10.23660         1.66870        -2.07183
H          9.40427         1.39291        -2.52879
O         -2.96591        -0.90555        -1.55448
H         -3.63186        -0.54036        -2.18307
O         -4.31916         3.47198        -1.74492
H         -4.60978         2.80260        -2.40657
O          3.86146        -8.16959        -1.50914
H          4.09682        -7.31404        -1.94704
O         -1.29650         1.12869         2.71447
H         -0.46676         0.76232         3.09909
O          8.47491         1.35817         1.15885
H          8.83228         0.61578         1.72096
O          3.08585        -3.34662        -2.04990
H          3.78055        -3.68435        -2.65711
H         12.05043        -0.93907         0.65926
H         12.17511         1.33571        -0.13308
H         10.19922         3.14973         0.95021
H          9.60771         5.74900         0.03081
H          8.27679         7.98921         0.32746
H          6.96595        10.09378         0.61421
H          4.84180        11.24041         0.98423
H          2.31011        11.28444         0.60492
H         -0.13562        11.36511         0.08491
H         -2.62835        11.38526        -0.38104
H         -5.12410        11.32158        -1.11421
H         -7.11946        10.00752        -1.57918
H         -8.28966         7.77599        -1.74826
H         -9.64664         5.52196        -1.58982
H        -10.77971         3.38826        -1.67705
H        -12.08970         1.16819        -1.27964
H        -12.04408        -1.23068        -0.70329
H        -10.89694        -3.13053         0.31148
H         -9.64738        -5.33257         0.35533
H         -8.58129        -7.43859        -0.00820
H         -7.33138        -9.73049        -0.38692
H         -5.22478       -10.96421        -0.73515
H         -2.83604       -11.07646        -0.34340
H         -0.15029       -11.12538         0.24263
H          2.32086       -11.10096         0.41342
H          4.95875       -11.05259         0.10972
H          7.06032        -9.82365         0.03971
H          8.36751        -7.57522        -0.03534
H          9.62120        -5.39748         0.01622
H         10.85876        -3.17587         0.04073
