         429
 CSIRO Nanostructure Databank - Neutral Graphene Oxide Data Set
C          1.66849         3.62405         3.12464
C          1.45834         4.52184         2.02951
C          2.82735         2.90981         3.23915
C          2.45058         4.76533         1.10557
C          0.93987         6.30926        -0.29323
C          0.90841         7.47222        -0.97302
C          2.18729         5.46523        -0.22796
C          2.12493         8.14048        -1.40534
C          1.05992        11.10479        -0.65575
C          1.22989        12.16863         0.21757
C          2.18501        10.40841        -1.12948
C          2.52328        12.61984         0.54605
C          1.62050        14.40160         2.09621
C          1.75164        15.59749         2.77923
C          2.70402        13.80774         1.36989
C          2.98879        16.28657         2.82848
C          3.13063        17.59801         3.33507
C          3.90072         3.09771         2.28917
C          3.73177         4.12176         1.26594
C          5.03950         2.32974         2.31387
C          4.84317         4.50391         0.50768
C          3.43848         6.21915        -0.73510
C          3.37108         7.65283        -1.13250
C          4.77237         5.65497        -0.41425
C          4.64108         8.41298        -1.35625
C          3.49444        10.74272        -0.75194
C          3.66496        11.94350         0.00684
C          4.68570         9.95048        -1.17308
C          4.95384        12.57204         0.05663
C          3.96919        14.40233         1.42995
C          4.14818        15.62004         2.23177
C          5.07607        13.87352         0.67024
C          5.35999        16.50467         1.92869
C          4.25536        18.38474         3.09003
C          5.33883        17.92972         2.29591
C          6.13522         2.48626         1.29348
C          6.09493         3.84141         0.61326
C          7.49821         2.25956         1.89884
C          7.24538         4.37473         0.02882
C          6.01031         6.44554        -0.63523
C          5.94622         7.71544        -1.14183
C          7.26456         5.70769        -0.51522
C          7.19582         8.42273        -1.64977
C          6.02892        10.57152        -0.95112
C          6.09098        11.97549        -0.56140
C          7.18304         9.89842        -1.26088
C          7.28496        12.71587        -0.73799
C          6.21419        14.64681         0.42609
C          6.22011        16.06361         0.80804
C          7.20359        14.21996        -0.63174
C          7.40307        16.93800         0.47679
C          6.43748        18.72822         1.93822
C          7.54193        18.22345         1.20114
C          8.62365         2.61029         1.20351
C          8.42527         3.41749        -0.10908
C          9.89669         2.04357         1.46694
C          9.73230         4.11413        -0.51166
C          8.46517         6.35468        -0.85119
C          8.49691         7.73617        -1.22741
C          9.73701         5.59767        -0.87194
C          9.71841         8.41396        -1.29199
C          8.43663        10.64937        -1.49349
C          8.48625        12.09446        -1.16194
C          9.73395         9.85824        -1.64902
C          9.69861        12.81792        -1.19047
C          8.54100        14.91874        -0.50155
C          8.60300        16.26683        -0.06658
C          9.73326        14.22174        -0.85860
C          9.80283        17.00345        -0.07460
C          8.75039        18.91172         1.09072
C          9.88475        18.33490         0.44774
C         11.06046         2.46115         0.79115
C         11.01227         3.53176        -0.09844
C         12.30273         1.61268         0.95741
C         12.25092         4.11665        -0.72696
C         11.01838         6.33896        -0.76514
C         10.98005         7.77837        -0.95893
C         12.21692         5.64202        -0.64348
C         12.18241         8.50627        -0.89457
C         11.02665        10.61321        -1.58291
C         10.98831        12.13747        -1.43125
C         12.24703         9.90713        -1.14878
C         12.22149        12.80703        -0.97545
C         10.97844        14.91523        -0.85539
C         10.99182        16.38402        -0.67846
C         12.20419        14.20212        -0.85104
C         12.29284        17.14574        -0.65110
C         11.12001        19.03798         0.45036
C         12.32625        18.46991         0.01482
C         13.55657         2.23763         0.39322
C         13.52828         3.53234        -0.17728
C         14.76320         1.55917         0.51496
C         14.73209         4.22684        -0.40656
C         13.47520         6.33635        -0.63862
C         13.42173         7.82610        -0.36141
C         14.68160         5.65320        -0.66389
C         14.70289         8.54608        -0.67641
C         13.44672        10.62688        -1.03876
C         13.45390        12.07003        -0.93021
C         14.70890         9.91566        -0.87788
C         14.66998        12.73173        -0.69523
C         13.43214        14.91373        -0.42230
C         13.59750        16.36802        -0.83866
C         14.69649        14.10802        -0.21296
C         14.82228        17.02392        -0.23287
C         13.56299        19.12578         0.16271
C         14.80680        18.46883        -0.01359
C         15.98946         2.16497         0.11681
C         15.97660         3.54918        -0.25377
C         17.20449         1.44450         0.14383
C         17.22824         4.22977        -0.43206
C         15.95658         6.39010        -0.99920
C         15.98399         7.80475        -0.40788
C         17.24112         5.66479        -0.63417
C         17.22319         8.53645        -0.86087
C         15.94877        10.63472        -0.98390
C         15.91700        12.10911        -1.25856
C         17.18662         9.95697        -1.03365
C         17.21044        12.81009        -0.91956
C         16.02577        14.79195         0.10306
C         15.96962        16.30693        -0.03231
C         17.24277        14.16193        -0.54461
C         17.22974        17.01562         0.26222
C         16.01919        19.16474         0.13185
C         17.26577        18.48919         0.14928
C         18.43641         2.06519        -0.17936
C         18.41883         3.49211        -0.40307
C         19.65898         1.35117        -0.14223
C         19.70578         4.19711        -0.42477
C         18.41555         6.38990        -0.65426
C         18.43434         7.82311        -0.93685
C         19.71364         5.71624        -0.49346
C         19.66228         8.48637        -1.20237
C         18.40143        10.68083        -1.25754
C         18.42355        12.09606        -1.15872
C         19.64459         9.92457        -1.64992
C         19.67322        12.81165        -1.19592
C         18.46745        14.86093        -0.50167
C         18.53734        16.25099        -0.00381
C         19.67647        14.22796        -0.92702
C         19.75130        17.04160        -0.24434
C         18.49121        19.15271         0.09784
C         19.73620        18.46558        -0.08732
C         20.89205         1.90882        -0.68053
C         20.89640         3.45520        -0.90734
C         22.21103         1.31387        -0.54473
C         22.18460         4.16348        -0.96024
C         20.91344         6.38994        -1.00750
C         20.89886         7.78243        -1.23246
C         22.10396         5.60313        -1.26153
C         22.16621         8.51309        -1.22575
C         20.91720        10.67130        -1.33613
C         20.88857        12.07962        -1.32850
C         22.14395         9.96969        -1.17074
C         22.16143        12.81163        -1.44807
C         20.88984        14.96637        -0.89186
C         20.93867        16.36230        -0.58100
C         22.14564        14.30788        -1.25312
C         22.18612        17.09273        -0.64230
C         20.94264        19.18070        -0.23750
C         22.17603        18.52303        -0.48412
C         23.40019         2.03268        -0.75173
C         23.38881         3.48522        -0.94196
C         24.65197         1.36828        -0.72825
C         24.65449         4.22472        -0.91360
C         23.46223         6.37979        -1.34942
C         23.37169         7.82400        -1.11055
C         24.66618         5.63451        -1.00664
C         24.57067         8.48439        -0.58419
C         23.35104        10.69975        -0.97707
C         23.43205        12.09800        -1.19188
C         24.55876        10.02334        -0.50925
C         24.65267        12.79153        -1.07051
C         23.42546        14.91946        -0.71939
C         23.41647        16.42332        -0.79420
C         24.67123        14.27966        -1.34967
C         24.64095        17.11685        -0.79231
C         23.40370        19.22496        -0.53957
C         24.63653        18.55117        -0.67886
C         25.87896         2.07903        -0.72587
C         25.86308         3.50991        -0.69864
C         27.12404         1.39465        -0.75301
C         27.10979         4.21868        -0.24997
C         25.95525         6.40850        -1.12804
C         25.88034         7.83437        -0.62622
C         27.16844         5.68389        -0.61633
C         27.01343         8.54456        -0.31442
C         25.84868        10.71482        -0.52358
C         25.87007        12.11520        -0.75489
C         27.03503         9.99323        -0.27059
C         27.11292        12.82095        -0.61719
C         25.91920        14.98010        -0.88208
C         25.89537        16.39651        -0.80403
C         27.11352        14.26481        -0.71503
C         27.11660        17.11362        -0.70056
C         25.87939        19.24511        -0.65268
C         27.10584        18.56060        -0.66528
C         28.37239         2.07525        -0.76191
C         28.39136         3.50110        -0.58283
C         29.60283         1.38852        -0.84119
C         29.58354         4.19890        -0.48295
C         28.30092         6.36652        -0.34492
C         28.26285         7.81013         0.08564
C         29.55575         5.61437         0.06074
C         29.54393         8.57953        -0.07791
C         28.27830        10.69386        -0.13724
C         28.30422        12.11887        -0.29809
C         29.50951         9.96405         0.05241
C         29.56945        12.84389        -0.23087
C         28.34538        14.98091        -0.61182
C         28.34765        16.40563        -0.66716
C         29.56954        14.26572        -0.47327
C         29.59141        17.12590        -0.70262
C         28.34541        19.25681        -0.60940
C         29.57926        18.58478        -0.63072
C         30.82868         2.09135        -0.78714
C         30.82970         3.51613        -0.64748
C         32.08497         1.42451        -0.85246
C         32.05796         4.23722        -0.71080
C         30.77419         6.42868        -0.32001
C         30.77004         7.81703        -0.21798
C         31.98653         5.72185        -0.75202
C         32.02324         8.55199        -0.15498
C         30.71958        10.70838         0.57991
C         30.77209        12.18242         0.10579
C         31.98399         9.87428         0.36684
C         31.96906        12.96758         0.10758
C         30.78905        15.00317        -0.58605
C         30.79344        16.42968        -0.77994
C         31.99396        14.29277        -0.38005
C         32.08718        17.19526        -1.06579
C         30.79773        19.29473        -0.50500
C         32.06000        18.64645        -0.56577
C         33.27455         2.13471        -0.85863
C         33.27734         3.56209        -0.84715
C         34.58226         1.38023        -0.93300
C         34.60716         4.28088        -1.07680
C         33.30178         6.49721        -0.75961
C         33.27028         7.88905        -0.28503
C         34.57308         5.75113        -0.66964
C         34.50177         8.54450        -0.01492
C         33.19222        10.36125         0.84785
C         33.22079        12.49568         0.64698
C         34.45506         9.86530         0.49524
C         34.48044        12.93958         0.30516
C         33.28345        14.99038        -0.54777
C         33.26429        16.47137        -0.40356
C         34.57970        14.28864        -0.27507
C         34.54316        17.18746        -0.21464
C         33.26225        19.29098        -0.34264
C         34.57736        18.62550        -0.70631
C         35.70087         2.13033        -0.24967
C         35.74930         3.54149        -0.36837
C         36.75830         1.45883         0.35006
C         36.89305         4.23054         0.05418
C         35.73390         6.41690        -0.36268
C         35.76251         7.83020        -0.01057
C         36.99777         5.62032        -0.50646
C         36.90779         8.49839         0.47577
C         35.66125        10.71205         0.39338
C         35.69016        12.19431         0.55466
C         36.97491         9.96056         0.29011
C         36.91888        12.86657         0.56524
C         35.79909        15.03965         0.08034
C         35.81104        16.44203        -0.01883
C         36.94610        14.31892         0.48444
C         36.99538        17.16001         0.21183
C         35.83748        19.31720        -0.25609
C         36.99230        18.61595         0.10551
C         37.86255         2.15810         0.89919
C         37.92717         3.58133         0.80434
C         38.96225         1.43015         1.46140
C         39.04744         4.27005         1.42838
C         37.94336         6.51952         1.53683
C         38.03905         7.84559         1.07800
C         39.11607         5.69618         1.61841
C         39.29061         8.53650         1.31306
C         38.30695        10.69741         0.41420
C         38.16118        12.16375         0.79881
C         39.36230         9.95397         1.19796
C         39.29856        12.86597         1.14468
C         38.15310        15.02889         0.71042
C         38.18280        16.44852         0.55565
C         39.34465        14.31098         1.06168
C         39.40305        17.15208         0.77536
C         38.21787        19.28761         0.36901
C         39.40632        18.58706         0.68088
C         40.10474         2.07795         1.84608
C         40.17726         3.50802         1.82741
C         41.37809         4.17432         2.20668
C         40.35167         6.35390         1.86390
C         40.39844         7.80800         1.84160
C         41.48609         5.54803         2.15630
C         41.52759         8.53729         2.28322
C         40.47849        10.65184         1.67064
C         40.48437        12.16732         1.77747
C         41.54810         9.92305         2.23731
C         41.77117        12.85435         1.39305
C         40.57503        14.99191         1.16169
C         40.60595        16.43590         1.06516
C         41.79292        14.19671         1.21600
C         41.79161        17.17999         1.26531
C         40.62752        19.28042         0.89778
C         41.79199        18.57701         1.18398
O          8.97195        10.26093        -2.81310
O         34.10716        14.48598        -1.65508
O          1.93615         9.37624        -2.04231
O         20.65470         2.57366        -2.00065
O         29.48364         5.46697         1.48777
O         19.94735         5.00300         0.78055
O         33.14959        11.51648         1.64428
O         18.00907        16.46533         1.35806
O          4.61582         9.32061        -2.49898
O         33.60439        16.96624         0.92337
O         22.17280        13.74110        -2.60863
O         11.20147        11.48270        -2.73402
O         32.55652         6.26568        -2.00044
O         11.49240        17.14597        -1.87881
O         22.75606         5.91783        -2.53626
O         13.77974        14.46283         0.91618
O          5.37117        15.59961         3.06355
O         36.29358        10.39333        -0.92821
O          9.75445         4.55402        -1.91257
O         32.33604        17.24688        -2.44397
O          6.19850        16.94240        -0.38673
O         37.95891         5.98730        -1.16359
O         24.32596         9.19189         0.67325
O          8.06464         2.47951        -1.06746
O          4.13620         5.38521        -1.73760
O          5.97185         1.46130         0.26962
H          6.67047         1.66671        -0.42563
O         27.05244         4.21210         1.22009
H         27.91850         4.63203         1.52683
O         34.86039         4.20525        -2.50711
H         35.57364         4.84158        -2.72594
O         15.95904         6.56032        -2.44399
H         15.82353         5.68271        -2.85887
O          7.14340         8.32984        -3.09479
H          6.30828         8.76966        -3.38064
O         13.88083        16.30788        -2.26109
H         13.04255        16.54256        -2.72973
O         24.67887        14.48274        -2.78267
H         23.82415        14.13500        -3.14133
O         12.27934         3.77168        -2.14599
H         11.38237         3.99817        -2.50425
O         26.13621         6.55325        -2.58793
H         26.00526         5.67376        -3.00220
O         16.25608        14.53270         1.51911
H         15.41700        14.74508         1.98705
O         19.61110         9.86285        -3.13662
H         19.70471        10.78118        -3.47015
O         12.05363         0.33029         0.36082
H         11.79511         0.47252        -0.57354
O         36.75139         6.03056         1.97799
H         36.87400         5.12435         2.32829
O         38.85212        10.75732        -0.93994
H         38.08428        10.87619        -1.54633
O         30.49991        10.79580         2.02085
H         31.32271        11.16926         2.41172
O          6.62063        14.67082        -1.91008
H          6.41236        15.63079        -1.79524
O         16.07080         7.63070         1.05509
H         16.37667         8.48019         1.43887
O          1.90974         4.37460        -1.14417
H          2.73023         4.24438        -1.68270
O         40.32850        12.41500         3.22484
H         40.35901        13.38671         3.35738
O         13.30047         7.89687         1.11491
H         14.18314         7.62094         1.46896
O         23.47725        14.57264         0.69573
H         22.82251        15.12265         1.17538
O         15.79241        12.26924        -2.73023
H         16.31915        11.55861        -3.15503
O         34.63805        18.59000        -2.15949
H         33.81325        18.08882        -2.47936
O         34.44765         0.05812        -0.41005
H         34.15294         0.12232         0.52118
O         28.15504         7.71608         1.54787
H         28.71500         6.92413         1.82457
H          0.85334         3.47445         3.84663
H          0.47353         4.99926         1.92720
H          2.95567         2.17041         4.04273
H          0.00003         5.84981         0.04550
H         -0.04118         8.00116        -1.13843
H          0.05848        10.79528        -0.98043
H          0.34490        12.69655         0.59530
H          0.63800        13.91110         2.09122
H          0.87401        16.04055         3.27212
H          2.27701        18.04615         3.86493
H          5.13398         1.52106         3.05506
H          4.26874        19.42321         3.45156
H          7.58569         1.76768         2.88211
H          6.49255        19.75688         2.32592
H          9.95097         1.14143         2.09605
H          8.85546        19.89925         1.56419
H         12.47340         1.41969         2.05138
H         11.14602        20.03902         0.90675
H         14.77223         0.53607         0.91765
H         13.56745        20.16816         0.51556
H         17.18980         0.37603         0.40437
H         16.00227        20.26159         0.21493
H         19.67285         0.33223         0.27148
H         18.50026        20.25282         0.08313
H         22.27954         0.27697        -0.18316
H         20.93271        20.27590        -0.13435
H         24.67235         0.26958        -0.68083
H         23.40030        20.31868        -0.41991
H         27.11965         0.29422        -0.79240
H         25.87614        20.34404        -0.59625
H         29.61029         0.29264        -0.93934
H         28.33358        20.35552        -0.54024
H         32.11471         0.32629        -0.91012
H         30.76265        20.39515        -0.44962
H         34.86535         1.26874        -2.01580
H         33.26382        20.32100         0.05295
H         36.74643         0.35931         0.38355
H         35.89960        20.41172        -0.36706
H         38.89603         0.33402         1.51489
H         38.25156        20.38577         0.29899
H         40.97588         1.50964         2.20254
H         42.24923         3.56557         2.48928
H         42.45336         6.02078         2.37394
H         42.38967         8.00574         2.70976
H         42.41561        10.46340         2.64142
H         42.70988        12.28115         1.37988
H         42.75361        14.69866         1.02895
H         42.73181        16.66329         1.50174
H         40.64394        20.37767         0.83207
H         42.73050        19.12431         1.34982
