         598
 CSIRO Nanostructure Databank - Neutral Graphene Oxide Data Set
C         23.57798        69.79249         3.13204
C         23.66081        71.18067         3.47701
C         22.50765        71.92669         3.83336
C         23.84373        73.94101         4.07048
C         22.61540        73.28319         4.14155
C         25.40182        65.55154         1.44131
C         25.62758        66.91205         1.83153
C         24.55478        67.68515         2.28563
C         25.97492        69.70355         2.62618
C         24.68371        69.06068         2.67530
C         26.11929        71.05462         3.18257
C         24.91813        71.83971         3.47043
C         26.25336        73.93787         3.47845
C         25.02350        73.23621         3.71344
C         27.91714        61.33108         0.25130
C         27.93395        62.69721         0.56991
C         26.64203        63.40364         0.66333
C         28.35687        65.61437         1.49182
C         26.43191        64.55499         1.40226
C         28.18351        66.95011         1.32705
C         26.87634        67.69850         1.40479
C         28.25541        69.80663         1.72077
C         27.07031        69.07661         2.02445
C         28.42492        71.17919         2.05057
C         27.41422        71.83447         2.89154
C         28.53463        74.00643         2.50287
C         27.38948        73.30868         2.95663
C         30.26389        56.94073        -0.62197
C         30.33885        58.40855        -0.27883
C         29.06287        59.20015        -0.27218
C         30.35912        61.29896        -0.07184
C         29.10510        60.58561        -0.02664
C         30.40310        62.66923         0.23229
C         29.21557        63.35712         0.60299
C         30.44026        65.58563         0.05759
C         29.28704        64.83886         0.65344
C         30.58564        67.02969         0.40007
C         29.37051        67.71784         0.90887
C         30.48278        69.92806         0.38063
C         29.26002        69.19104         0.81416
C         30.76283        71.22645         1.10773
C         29.53624        71.93521         1.62514
C         30.82701        74.06239         1.56308
C         29.63481        73.34054         1.90466
C         32.74165        52.64257        -0.77395
C         32.73164        54.07161        -0.91422
C         31.50119        54.79370        -0.79211
C         32.68927        56.93353        -1.17105
C         31.42887        56.21066        -0.82279
C         32.72087        58.42068        -1.28645
C         31.45104        59.16626        -0.99086
C         32.91624        61.16909        -0.39158
C         31.52861        60.62402        -0.69702
C         32.93851        62.69431        -0.37174
C         31.68320        63.42989         0.02366
C         32.83545        65.58385        -0.61013
C         31.66765        64.86644        -0.27669
C         32.77835        67.04970        -0.69810
C         31.69076        67.76933        -0.24791
C         32.80088        69.94058        -0.51542
C         31.69064        69.21304        -0.15289
C         32.83966        71.41655        -0.37410
C         31.71183        72.11297         0.33718
C         33.09432        74.15019         0.53357
C         31.89478        73.49021         0.85152
C         35.18718        48.40510        -0.10780
C         35.17077        49.82340        -0.21529
C         33.94767        50.51528        -0.40095
C         35.21484        52.53826        -1.02815
C         33.92295        51.89439        -0.69835
C         35.22095        54.04201        -1.22712
C         33.96285        54.76167        -1.02952
C         35.25848        56.96877        -1.23938
C         33.98702        56.22771        -0.95761
C         35.22409        58.39571        -1.83016
C         34.01014        59.15407        -1.33256
C         35.27695        61.24841        -1.37122
C         34.04855        60.51821        -1.16721
C         35.22802        62.68053        -1.62488
C         33.92908        63.45507        -1.18464
C         35.09696        65.61707        -1.82581
C         34.00281        64.89641        -1.03939
C         35.26007        67.04711        -1.27523
C         33.92913        67.77357        -1.26730
C         35.26469        69.98646        -1.18345
C         33.95368        69.28367        -1.15238
C         35.29627        71.39805        -0.83844
C         34.14118        72.10220        -0.46136
C         35.42924        74.17918        -0.22955
C         34.20545        73.49026        -0.07360
C         37.71449        44.12046         0.21140
C         37.65876        45.54409         0.26866
C         36.45980        46.27001        -0.02871
C         37.58391        48.42025         0.48176
C         36.37166        47.66890         0.08731
C         37.61400        49.93560         0.32982
C         36.40141        50.57930        -0.16877
C         37.70660        52.65087        -0.57926
C         36.47848        51.91454        -0.58786
C         37.72002        54.05901        -0.92910
C         36.52102        54.73578        -1.15837
C         37.79664        56.89952        -1.55688
C         36.49161        56.16114        -1.51899
C         37.75770        58.37173        -1.28843
C         36.51029        59.13479        -1.50369
C         37.77312        61.29704        -1.34124
C         36.50285        60.51860        -1.38595
C         37.73688        62.77620        -1.58164
C         36.45286        63.50744        -1.72373
C         37.67774        65.68317        -1.82572
C         36.43637        64.88098        -1.78699
C         37.65604        67.06834        -1.89200
C         36.35086        67.84040        -2.01868
C         37.67766        69.99770        -1.58693
C         36.41185        69.29582        -1.53720
C         37.69575        71.42458        -1.36212
C         36.54677        72.10431        -0.95573
C         37.81702        74.23560        -0.80401
C         36.59426        73.53101        -0.68567
C         40.20381        39.91619        -0.09690
C         40.12552        41.26191         0.27976
C         38.94088        42.01251         0.16095
C         40.12179        44.08038         0.88164
C         38.90564        43.40144         0.42499
C         40.01200        45.53758         1.13239
C         38.84424        46.23732         0.60248
C         40.14451        48.46605         0.67004
C         38.88272        47.68918         0.43671
C         40.07698        49.96324         0.78216
C         38.88932        50.66173         0.24400
C         40.20209        52.72827        -0.23002
C         38.93003        51.99783        -0.16748
C         40.22988        54.03826        -0.72659
C         39.00282        54.77652        -1.00042
C         40.27931        56.90084        -1.56457
C         39.03713        56.13909        -1.29308
C         40.30359        58.34654        -1.59952
C         39.08970        59.10485        -1.29864
C         40.28269        61.27677        -2.04909
C         39.02462        60.54392        -1.69647
C         40.27694        62.78739        -2.07835
C         38.95574        63.52404        -2.01489
C         40.18410        65.61951        -1.68869
C         38.95780        64.97951        -1.78587
C         40.23577        67.08358        -1.81529
C         38.90718        67.84159        -1.99154
C         40.14980        69.99973        -1.49808
C         38.87306        69.29732        -1.75193
C         40.24001        71.45500        -1.82773
C         38.91396        72.19693        -1.66150
C         40.24834        74.24144        -1.22270
C         38.99773        73.60708        -1.24877
C         42.77900        35.93705        -1.45397
C         42.72285        37.28904        -1.05949
C         41.49441        37.90938        -0.71607
C         42.68965        39.94966        -0.08102
C         41.44985        39.23883        -0.26666
C         42.67138        41.24478         0.61720
C         41.32794        41.93206         0.82162
C         42.57738        44.03151         1.48502
C         41.30375        43.39220         1.04373
C         42.56552        45.55638         1.69076
C         41.28742        46.33885         1.49793
C         42.55836        48.47527         1.17870
C         41.35565        47.76648         1.13546
C         42.63530        49.86387         0.86036
C         41.40419        50.68278         0.75483
C         42.67372        52.64231         0.00919
C         41.43874        52.05184         0.16881
C         42.80437        53.97104        -0.62355
C         41.53983        54.68087        -1.03096
C         42.79493        56.96354        -1.05202
C         41.63544        56.14639        -1.39405
C         42.81622        58.35070        -1.32402
C         41.58965        59.00928        -1.83935
C         42.73839        61.28148        -1.35332
C         41.61104        60.57010        -1.94388
C         42.55466        62.70966        -1.00970
C         41.44922        63.50606        -1.56951
C         42.63668        65.62862        -1.09310
C         41.42263        64.89425        -1.44304
C         42.63713        67.08581        -1.14517
C         41.45581        67.77706        -1.38552
C         42.69858        69.96050        -1.35589
C         41.42584        69.23842        -1.26054
C         42.71056        71.36276        -1.58787
C         41.52165        72.17091        -1.65954
C         42.67745        74.37037        -1.12737
C         41.50296        73.58656        -1.43310
C         45.24848        33.40548        -2.61109
C         44.05821        33.96537        -2.20781
C         45.19108        36.14058        -1.89361
C         43.99427        35.34437        -1.83949
C         45.14237        37.50031        -1.49004
C         43.93607        38.06547        -1.04174
C         45.14622        40.11863        -0.28907
C         43.89976        39.40498        -0.51161
C         45.11766        41.40894         0.36004
C         43.92090        42.03191         0.69178
C         45.07757        44.14538         1.22115
C         43.88370        43.39418         1.16714
C         45.03324        45.58392         1.39283
C         43.84478        46.26884         1.52450
C         45.07914        48.50862         1.54150
C         43.78923        47.75528         1.58544
C         45.10203        49.87920         1.02783
C         43.89428        50.50956         0.71074
C         45.27560        52.60820         0.17683
C         43.92190        51.86665         0.15209
C         45.19403        54.07424         0.30805
C         44.07416        54.77871        -0.40737
C         45.17590        57.16472        -0.26066
C         44.02904        56.28319        -0.59151
C         45.26434        58.47191        -0.93008
C         43.97522        59.16616        -1.14577
C         45.12305        61.35961        -0.61709
C         43.93990        60.59635        -1.07300
C         45.03881        62.73515        -0.44067
C         43.77961        63.48928        -0.55492
C         45.03862        65.67827        -0.47271
C         43.80351        64.95795        -0.73766
C         45.06592        67.13269        -0.61364
C         43.86854        67.81966        -0.95528
C         45.14756        69.95129        -1.07182
C         43.90454        69.24001        -1.16218
C         45.20145        71.35474        -1.34202
C         43.99330        71.93527        -1.80153
C         45.24586        74.40820        -1.03340
C         43.97408        74.02000        -1.50966
C         46.42304        34.19482        -2.68680
C         47.65335        36.36864        -2.53654
C         46.40730        35.53562        -2.34152
C         47.64820        37.66257        -1.76067
C         46.34067        38.38558        -1.64057
C         47.60937        40.23633        -0.47207
C         46.35717        39.56581        -0.72097
C         47.63550        41.49369         0.15693
C         46.40532        42.01137         0.85718
C         47.57473        44.19872         1.03304
C         46.35895        43.51110         0.98020
C         47.59998        45.60871         1.31738
C         46.30730        46.33852         1.06919
C         47.52769        48.46256         1.61941
C         46.33907        47.76156         1.51547
C         47.54266        49.87602         1.51112
C         46.36720        50.56367         1.05861
C         47.57436        52.71346         1.27839
C         46.40141        51.94370         0.82485
C         47.51360        54.20265         1.36398
C         46.13803        54.68344         1.07576
C         47.55746        57.22224         0.51377
C         46.18428        56.77874         0.57730
C         47.63775        58.54660         0.07649
C         46.50551        59.24926        -0.57147
C         47.53903        61.36527         0.08225
C         46.40063        60.70260        -0.37760
C         47.45386        62.80141         0.41133
C         46.16507        63.51496         0.08833
C         47.42392        65.68280         0.24987
C         46.17702        64.97930        -0.09913
C         47.46787        67.17965         0.05640
C         46.26225        67.86330        -0.43232
C         47.54037        70.02000        -0.54954
C         46.33458        69.26672        -0.70359
C         47.59362        71.41832        -0.78719
C         46.40063        72.12672        -1.15960
C         47.66737        74.23745        -1.01938
C         46.41204        73.58513        -1.13148
C         48.80992        38.27876        -1.43172
C         50.05047        40.28471        -0.68340
C         48.84703        39.61786        -0.86838
C         50.08460        41.60721        -0.15001
C         48.85303        42.20779         0.27860
C         50.05399        44.27404         0.86592
C         48.84812        43.55014         0.77301
C         50.07052        45.63160         1.35357
C         48.78633        46.27413         1.56417
C         50.04545        48.43268         2.23859
C         48.76951        47.71090         1.93723
C         50.05317        49.93894         2.07536
C         48.84595        50.56126         1.45093
C         50.08422        52.87679         1.43236
C         48.88739        52.04198         1.20204
C         50.01796        54.29976         1.22852
C         48.75471        55.02540         1.13996
C         50.00651        57.12718         0.69971
C         48.74132        56.42228         0.83457
C         50.02383        58.52086         0.49482
C         48.83807        59.26741         0.25802
C         50.00484        61.39298         0.58801
C         48.80598        60.68789         0.24714
C         49.94368        62.84620         0.78811
C         48.71101        63.58108         0.41911
C         49.98837        65.64356         0.00304
C         48.70504        64.93056         0.25460
C         49.99995        67.12817        -0.21046
C         48.75320        67.85884        -0.10494
C         50.07163        70.06056         0.00061
C         48.74305        69.31666        -0.07166
C         50.07133        71.46841        -0.40969
C         48.86093        72.12249        -0.68778
C         50.13643        74.22590        -0.97909
C         48.88819        73.54940        -0.90743
C         51.28671        42.32959        -0.02295
C         52.49550        44.39371         0.57891
C         51.29760        43.65078         0.48318
C         52.51272        45.71589         1.07487
C         51.27858        46.33298         1.48462
C         52.61376        48.48145         2.03456
C         51.36059        47.61900         2.29596
C         52.61133        50.00379         2.01842
C         51.31065        50.75893         2.03796
C         52.52845        52.86121         1.35631
C         51.30488        52.18631         1.57190
C         52.49411        54.25117         1.07003
C         51.26712        54.97272         1.03558
C         52.48022        57.08090         0.64693
C         51.27320        56.40958         0.78517
C         52.56648        58.53863         0.43378
C         51.27171        59.29340         0.36144
C         52.49078        61.44462         0.82661
C         51.24243        60.74289         0.63873
C         52.50794        62.84587         0.92610
C         51.23451        63.58649         0.92148
C         52.51439        65.74672         0.59169
C         51.27732        64.96793         0.36275
C         52.54136        67.10845         0.34835
C         51.35244        67.86296        -0.11149
C         52.53385        70.06202         0.05803
C         51.35215        69.33467         0.00882
C         52.51433        71.48378        -0.06595
C         51.32533        72.15641        -0.40081
C         52.61605        74.16503        -1.03536
C         51.35466        73.56052        -0.77337
C         53.73157        46.44952         1.09989
C         54.99011        48.54587         1.31982
C         53.80981        47.80639         1.46896
C         55.03140        49.97412         1.39609
C         53.80744        50.71958         1.52233
C         55.02799        52.79236         1.12281
C         53.78585        52.10604         1.31759
C         55.03819        54.20412         0.94788
C         53.74874        54.84266         0.46146
C         54.94204        57.08660         1.07494
C         53.79412        56.39078         0.36748
C         54.97571        58.57338         1.01618
C         53.79303        59.28038         0.82296
C         54.90456        61.43275         1.28223
C         53.74362        60.72156         0.93819
C         54.92876        62.87026         1.35762
C         53.70065        63.60913         1.12811
C         54.83170        65.82886         1.47451
C         53.66895        65.03042         1.06781
C         54.98366        67.23265         1.06578
C         53.82763        67.83603         0.38202
C         55.04207        70.06172         0.55725
C         53.82961        69.34126         0.16836
C         55.04740        71.53270         0.34628
C         53.74247        72.32287         0.21658
C         55.04420        73.99138        -1.24917
C         53.82656        73.50626        -0.74890
C         56.24750        50.66928         1.26649
C         57.49519        52.81078         1.22579
C         56.27428        52.08373         1.21169
C         57.49793        54.21555         1.20258
C         56.24401        54.89486         1.02235
C         57.49998        57.12868         0.91712
C         56.22991        56.36396         1.19745
C         57.43641        58.57149         1.36759
C         56.20154        59.23853         1.34040
C         57.43432        61.42879         1.81185
C         56.12377        60.67861         1.63912
C         57.42164        62.88469         1.55449
C         56.14738        63.55880         1.49643
C         57.38153        65.76120         1.45199
C         56.16245        65.01150         1.67225
C         57.39514        67.15687         1.51316
C         56.18193        67.93859         1.24078
C         57.45538        70.10853         0.66182
C         56.22347        69.37369         0.87960
C         57.44135        71.12554        -0.45289
C         56.31219        72.10739        -0.22246
C         57.47302        73.70977        -1.68007
C         56.28618        73.32161        -1.07326
C         58.70263        54.97992         1.38133
C         59.92479        57.12693         1.49963
C         58.74269        56.38096         1.34548
C         59.92730        58.55570         1.47378
C         58.67181        59.27103         1.50142
C         59.90143        61.39977         1.56173
C         58.69915        60.69227         1.61850
C         59.89715        62.88249         1.84128
C         58.61152        63.56172         1.45001
C         59.92578        65.74894         1.10275
C         58.61391        65.01139         1.17390
C         59.93075        67.19767         1.42043
C         58.69573        67.75369         1.73954
C         59.94561        70.19204         0.74830
C         58.68537        69.82837         1.25017
C         59.98419        71.30416        -0.16966
C         58.75427        71.83912        -0.64805
C         59.94977        73.55545        -1.87038
C         58.72753        73.03852        -1.41021
C         61.13367        59.29004         1.47155
C         62.36875        61.45425         1.42164
C         61.14947        60.70505         1.48225
C         62.40308        62.85751         1.38651
C         61.15404        63.61665         1.42808
C         62.42418        65.75642         1.57716
C         61.16403        64.97710         1.31389
C         62.36879        67.22417         1.16849
C         61.17180        67.94721         1.31239
C         62.48978        70.16920         0.93174
C         61.17649        69.46188         1.18366
C         62.46893        71.64598         0.31146
C         61.20884        71.92354        -0.50728
C         62.39684        73.47445        -2.02233
C         61.18672        72.99137        -1.46092
C         63.60316        63.57584         1.14903
C         64.81152        65.68596         0.84434
C         63.64181        64.98596         1.11954
C         64.85419        67.11353         0.81290
C         63.62251        67.87446         0.92092
C         64.97849        69.85331         0.89116
C         63.70149        69.29135         0.85300
C         64.97705        71.77489        -0.01209
C         63.70598        72.07198        -0.47757
C         64.84895        73.35303        -2.24878
C         63.64666        72.94841        -1.61763
C         66.08892        67.75155         0.58552
C         67.34900        69.87980         0.16565
C         66.18495        69.16372         0.56769
C         67.35300        71.13949        -0.50746
C         66.16543        71.91671        -0.77145
C         67.31553        73.13678        -2.56188
C         66.10615        72.81629        -1.88176
C         68.53156        71.53016        -1.19777
C         68.50726        72.53020        -2.17685
O         50.79255        64.96221        -1.02372
O         46.20973        38.99721        -3.10617
O         47.47279        53.38718         2.59929
O         33.62685        68.59501        -2.42939
O         44.34717        48.31505         2.83130
O         41.05818        56.36277        -2.70129
O         50.42410        63.34059         2.11086
O         29.24859        65.34421        -0.77140
O         40.59183        69.72595        -0.10771
O         42.33800        53.91864        -2.00438
O         50.78601        67.47887        -1.41642
O         39.60930        63.24478        -3.29257
O         41.85536        59.72306        -3.09021
O         32.80549        63.17961         0.99630
O         31.70276        72.04289        -1.10699
O         44.05234        73.07645        -2.57678
O         61.90957        70.14920         2.27888
O         65.08965        71.18812         1.26221
O         53.53099        54.32137        -0.84995
O         44.77895        51.99738        -1.03749
O         49.16719        48.01284         3.32792
O         54.11691        68.41706        -0.94732
O         38.43829        58.74713        -0.03272
O         40.59700        50.56133         1.99773
O         42.77570        63.02025         0.41607
O         30.50922        67.35339         1.83195
O         59.22270        65.38639        -0.14346
O         52.92206        49.26120         3.24111
O         56.65651        61.02550         2.97302
O         49.07204        51.10853         0.08498
O         47.29408        66.57169         1.41756
O         37.91547        62.21464        -0.21267
O         44.52451        55.34645        -1.67128
O         39.47264        71.86983        -2.98593
O         50.53445        50.61680         3.27641
O         45.82908        55.92220         1.61841
O         37.12843        56.49278        -2.79281
O         39.76527        67.52087        -3.14498
O         37.42461        49.25871         1.65414
O         40.29719        46.00697         2.50660
O         41.96706        41.19111         1.91140
O         42.52640        44.63958         2.81493
O         39.75467        48.07117        -0.71234
O         52.02490        58.97139        -0.86963
O         34.13330        63.00978        -2.56018
O         29.32702        69.84066        -0.50431
O         46.51873        63.12647         1.48492
O         56.00346        72.27823         1.19177
O         31.16367        60.13541        -2.03551
O         35.21819        53.09518        -2.37598
O         55.35453        65.50409         2.78391
O         34.81200        56.82307         0.13604
O         27.49180        64.87731         2.28766
O         49.27028        69.83311         1.22935
O         32.58776        57.55779        -2.50138
O         27.19411        71.18068         4.17860
O         58.68556        68.98745         2.37801
O         46.28446        58.72810        -1.94489
O         55.42400        56.66945         2.39772
O         39.42792        60.71433        -3.08512
O         26.58285        67.99803        -0.00527
H         26.54041        67.14910        -0.49560
O         47.75231        36.71272        -3.93693
H         47.07589        37.40510        -4.11486
O         57.56518        57.17569        -0.54670
H         58.41909        57.58619        -0.79844
O         51.51048        47.13525         3.64765
H         51.69914        47.91861         4.21215
O         44.96563        39.70103        -3.18777
H         45.22084        40.63908        -3.00958
O         46.24206        46.44526        -0.41678
H         47.05849        46.89590        -0.72332
O         53.49318        72.91104         1.52685
H         54.37444        73.16525         1.88724
O         46.53246        41.51655         2.24971
H         46.45922        40.53872         2.22288
O         34.63877        65.69447        -3.18994
H         34.43122        64.77514        -3.47999
O         35.12878        58.27922        -3.26864
H         34.20841        57.98663        -3.47648
O         59.92731        62.97914         3.31530
H         60.78548        62.61287         3.61895
O         54.03981        56.71324        -1.02369
H         53.78180        55.87707        -1.51272
O         31.53112        70.84471         2.29759
H         30.95102        70.31926         2.88961
O         62.38518        72.54127         1.44407
H         61.97653        72.02920         2.18367
O         57.12343        70.45006        -1.71250
H         57.82251        69.78779        -1.89347
O         62.52004        65.79265         3.04820
H         63.32632        66.30219         3.27775
O         33.16681        60.70331         0.96277
H         33.03114        61.46853         1.57247
O         30.80928        58.41440         1.13324
H         30.13152        57.95841         1.67621
O         36.06860        67.89846        -3.42785
H         35.11717        68.14108        -3.53378
O         35.70322        66.95040         0.09798
H         35.09317        66.35552         0.58494
H         23.90230        75.01965         4.27482
H         26.25523        75.03224         3.59518
H         28.57287        75.09984         2.62009
H         30.89934        75.11556         1.87513
H         33.22864        75.19548         0.85171
H         35.47969        75.24654         0.03272
H         37.84967        75.29715        -0.51587
H         40.27648        75.30282        -0.93160
H         42.53441        75.26769        -0.50715
H         45.36183        75.39119        -0.55246
H         47.68588        75.33708        -1.06037
H         50.14196        75.30046        -1.21627
H         52.64125        75.13302        -1.55995
H         55.02723        74.90184        -1.86950
H         57.48726        74.60134        -2.32496
H         59.95917        74.43291        -2.53335
H         62.35971        74.24422        -2.80644
H         64.79397        74.06891        -3.08185
H         67.29960        73.86316        -3.38628
H         22.59434        69.30100         3.17689
H         21.52863        71.42787         3.86428
H         21.71506        73.84777         4.42169
H         24.35734        65.24328         1.26682
H         23.57607        67.20330         2.43655
H         26.95136        60.80634         0.20289
H         25.82053        62.99537         0.05503
H         29.32222        56.40461        -0.42208
H         28.09579        58.67524        -0.23969
H         31.78190        52.13222        -0.60338
H         30.58031        54.22213        -0.60343
H         34.24270        47.86290        -0.26378
H         32.99992        49.96595        -0.30138
H         36.81312        43.56675        -0.08963
H         35.56033        45.70162        -0.30726
H         39.28230        39.39279        -0.39304
H         38.03086        41.52020        -0.21324
H         41.85788        35.33542        -1.45501
H         40.55877        37.33969        -0.81694
H         45.29441        32.34379        -2.89063
H         43.14147        33.36003        -2.16272
H         47.35974        33.73612        -3.03466
H         48.56298        35.76606        -2.28464
H         49.76942        37.76851        -1.60937
H         50.99380        39.80028        -0.97584
H         52.23370        41.86508        -0.33574
H         53.44153        43.92899         0.26283
H         54.64302        45.95445         0.73097
H         55.91098        48.01718         1.02883
H         57.19194        50.10635         1.23228
H         58.44493        52.26240         1.31402
H         59.63591        54.43065         1.58475
H         60.88018        56.60126         1.65310
H         62.08939        58.74533         1.45046
H         63.31641        60.90010         1.34505
H         64.52925        63.01596         0.94650
H         65.74008        65.13221         0.63819
H         66.98282        67.13873         0.40237
H         68.28094        69.29590         0.08855
H         69.46918        70.99092        -0.99936
H         69.44062        72.79417        -2.69400
