         276
 CSIRO Nanostructure Databank - Neutral Graphene Oxide Data Set
C        -11.23951         0.71442         0.53296
C        -10.19135         1.54569        -0.18255
C         -8.89181         0.75626        -0.31689
C         -7.58250         1.50087        -0.28727
C         -6.31643         0.83463         0.27984
C         -5.14582         1.44485        -0.49103
C         -3.88589         0.67780        -0.71504
C         -2.58042         1.35683        -1.16524
C         -1.31350         0.75882        -0.58881
C         -0.01912         1.49354        -0.69577
C          1.25422         0.73262        -0.84631
C          2.47388         1.52304        -1.21386
C          3.79452         0.77832        -1.24243
C          5.05186         1.48435        -0.79064
C          6.24202         0.67181        -0.27010
C          7.51220         1.54092        -0.31822
C          8.82857         0.82659        -0.19410
C         10.05270         1.64860         0.24354
C         11.21711         0.74239         0.60712
C         -9.98476         2.91233         0.47776
C         -8.83423         3.62068         0.45216
C         -7.60845         3.00544        -0.12766
C         -6.29946         3.72352        -0.08732
C         -5.02880         2.91985        -0.20737
C         -3.71247         3.61687        -0.35039
C         -2.57686         2.92086        -1.06087
C         -1.29089         3.70528        -1.16801
C         -0.01265         3.00622        -0.81840
C          1.25201         3.78976        -0.67184
C          2.50125         3.03446        -1.08825
C          3.79341         3.74949        -0.78480
C          5.02782         2.97880        -0.45135
C          6.00431         3.44153         0.63583
C          7.39512         2.93985         0.21869
C          8.57650         3.62126         0.81556
C          9.70657         2.72119         1.29139
C         -8.75407         5.04469         1.01772
C         -7.50233         5.82669         0.62672
C         -6.21349         5.01646         0.74671
C         -4.91188         5.80807         0.39431
C         -3.66749         5.11448        -0.09253
C         -2.54323         5.93399        -0.67121
C         -1.30273         5.23051        -1.12573
C         -0.00619         5.99580        -1.23349
C          1.22519         5.34621        -0.60898
C          2.58156         5.95354        -1.05981
C          3.64001         5.15343        -0.27886
C          4.78956         5.76181         0.44285
C          5.98400         4.98134         1.03275
C          7.30194         5.75003         0.88530
C          8.53019         4.96417         1.02306
C         -7.51626         7.17481         0.51719
C         -6.31508         7.97753         0.14239
C         -5.00625         7.25740         0.01042
C         -3.73723         8.07074         0.04357
C         -2.43815         7.37691        -0.28252
C         -1.27738         8.18342        -0.69685
C         -0.02442         7.51689        -1.10113
C          1.28436         8.23179        -0.80439
C          2.56998         7.46010        -0.75965
C          3.75248         8.06827        -0.05289
C          4.91761         7.24789         0.38507
C          5.98118         7.86817         1.29688
C          7.27786         7.10880         1.04088
C         -6.21346         9.43687         0.42009
C         -5.07724        10.14621         0.25755
C         -3.83501         9.53214        -0.35643
C         -2.50691        10.21882        -0.12020
C         -1.30428         9.57584        -0.38281
C         -0.01723        10.39759        -0.48706
C          1.23586         9.59464        -0.19023
C          2.33354        10.14969         0.36952
C          3.55388         9.34409         0.77486
C          4.88921        10.06124         0.82787
C          6.01824         9.36578         1.05068
C        -11.17143        -0.62095         0.70001
C        -10.00579        -1.41903         0.29181
C         -8.86032        -0.69040        -0.10140
C         -7.57994        -1.38021        -0.35411
C         -6.35151        -0.73803         0.30645
C         -5.04569        -1.41476        -0.10896
C         -3.86815        -0.75240        -0.30127
C         -2.55943        -1.45693        -0.15317
C         -1.27822        -0.73802        -0.42219
C         -0.01591        -1.47491        -0.87774
C          1.25869        -0.63011        -0.74333
C          2.44495        -1.45513        -1.12158
C          3.73792        -0.74067        -1.54616
C          5.07644        -1.45561        -1.16824
C          6.36183        -0.71778        -0.90250
C          7.62413        -1.53895        -0.52704
C          8.81237        -0.66398        -0.10747
C          9.81850        -1.29238         0.87372
C         11.14965        -0.58884         0.76062
C        -10.00285        -2.81658         0.29830
C         -8.92488        -3.64191        -0.38695
C         -7.60424        -2.86961        -0.46669
C         -6.34885        -3.64133        -0.19135
C         -5.06108        -2.90377        -0.08131
C         -3.81511        -3.61291        -0.50863
C         -2.56642        -2.96999         0.05735
C         -1.27462        -3.61319        -0.41429
C          0.01443        -2.89221        -0.30933
C          1.17870        -3.61744        -0.32535
C          2.40410        -2.95082        -0.88239
C          3.72195        -3.69385        -0.83404
C          5.03293        -2.93537        -0.84380
C          6.13482        -3.54262         0.03022
C          7.33872        -2.66868         0.48187
C          8.64729        -3.49663         0.60605
C          9.81084        -2.80408         0.72757
C         -8.72553        -5.04564         0.18212
C         -7.58755        -5.76311         0.02734
C         -6.39569        -5.09547        -0.57687
C         -5.12843        -5.83417        -0.87395
C         -3.81649        -5.07899        -0.79463
C         -2.62947        -5.81926        -0.16195
C         -1.28655        -5.11440        -0.40472
C         -0.01558        -5.77255        -0.04193
C          1.15868        -5.05231        -0.04236
C          2.44920        -5.69669         0.31684
C          3.72591        -5.03946        -0.12429
C          5.00321        -5.86952        -0.36832
C          6.17434        -5.03617         0.18472
C          7.46459        -5.70756         0.50933
C          8.58368        -4.95191         0.68672
C         -7.40118        -7.14832         0.65289
C         -6.21490        -7.96190         0.11247
C         -5.10791        -7.33513        -0.68727
C         -3.78078        -8.06250        -0.76188
C         -2.52613        -7.29081        -0.54123
C         -1.32733        -7.99207         0.03605
C         -0.08394        -7.21002         0.31642
C          1.19094        -7.94997         0.58089
C          2.45695        -7.16081         0.68367
C          3.77482        -7.88609         0.77233
C          5.03582        -7.23085         0.32147
C          6.33489        -8.01337         0.12357
C          7.48266        -7.20804         0.81776
C         -5.86147        -9.22075         0.83088
C         -4.75384        -9.93482         0.56566
C         -3.78654        -9.57920        -0.55295
C         -2.39342       -10.16830        -0.32848
C         -1.24720        -9.47006        -0.11237
C          0.08337       -10.08485        -0.01880
C          1.22658        -9.40809         0.28813
C          2.61329       -10.03408         0.14001
C          3.68086        -9.38489         1.05138
C          5.04564       -10.03991         0.94833
C          6.20070        -9.42121         0.66808
O          7.08355        -2.18011         1.74260
O         -6.16520         4.57430         2.06748
O          3.55245         5.33887         1.15578
O         -5.79240         7.53847        -1.17437
O         -6.19061        -8.04881        -1.34788
O          7.49958         2.67684        -1.22067
O         -2.07084         3.36280        -2.34688
O          1.69144        -7.49056         1.88698
O          3.64831        -0.80404        -2.97706
H          4.40768        -0.29254        -3.33946
O         -1.27449        -4.38482        -1.65650
O          4.93315         7.91795        -0.91103
O          6.69457        -8.17844        -1.26069
H          6.20102        -7.52125        -1.80782
O         -7.46428        -2.02434        -1.66192
O          2.77446         5.72508        -2.44654
H          2.52177         6.54797        -2.92649
O         -4.00497         9.53420        -1.80459
H         -4.25933        10.43655        -2.08900
O          2.06532        -2.38924        -2.18819
O          4.75682         1.33042        -2.19202
O          0.54500         3.37657         0.51355
O          0.06840         6.81283        -2.40214
O         -6.22032         1.26416         1.65227
H         -5.73800         2.11803         1.75059
O          9.35780        -0.97229         2.20428
H          8.45455        -1.38509         2.32543
O          1.01845         5.73327         0.76666
H          1.66508         5.27366         1.35088
O         -1.05316        -7.52234         1.40295
O          8.05281        -2.24496        -1.70223
H          8.39539        -1.57434        -2.33559
O          5.64407        -4.17729         1.24209
O         -6.01986        -5.40106        -1.94663
O         -2.92460        -7.65638        -1.88797
O          4.93112         3.72751        -1.69083
O         -4.08649         2.98712         0.91757
O         -0.73604         1.30437         0.60606
O         -8.09371         1.05507        -1.55029
O          0.07345        10.90980        -1.82611
H          0.45990        10.21743        -2.40285
O          3.26337        -4.90600         1.24055
O          4.56343        -3.68210        -2.01962
O          2.20776         8.22624        -1.95597
O         -3.84382         5.47964         1.30524
O          5.85758         5.05831         2.44125
O         -2.83309         7.75102         1.09932
O          9.29327        -0.00458        -1.32540
O          5.10850        -6.15460        -1.77383
H          5.09637        -5.29899        -2.27715
O         -9.93697         5.76553         0.69043
H        -10.01766         5.80587        -0.28455
O         -0.07357        -1.70063        -2.26018
O          3.22847        -9.57932         2.40367
H          3.61008        -8.86200         2.95374
O          3.03234        -9.80810        -1.21326
H          2.47030       -10.33820        -1.81435
O          2.31126         2.40026        -2.37819
O         -6.55279        -1.13067         1.67683
H         -6.00401        -0.55092         2.25235
O         -3.68587        -4.10602        -1.86351
O         -2.98334        -5.79227         1.23791
H         -2.26882        -6.25752         1.74368
O          6.00752        -1.03861        -2.24795
O         -9.45974        -3.78073        -1.72900
H         -9.03620        -3.08352        -2.28424
O         -4.91223         0.91214        -1.79498
O          5.59381         2.73786         1.82418
H          5.58337         3.43121         2.55272
O         -2.64785        -3.19779         1.48057
H         -2.11001        -2.50659         1.93051
O         -5.72117        -3.47551         1.10880
O          7.39439        -7.36220         2.23517
H          6.49831        -7.07083         2.51875
O         -4.29015       -10.18959        -1.76319
H         -4.04166        -9.61036        -2.51488
O         -1.70514        -0.95096         0.95247
O         -7.08353         3.74286        -1.30195
O         -8.58967        -7.92445         0.50670
H         -8.65942        -8.18712        -0.43518
O         -2.28934         5.75412        -2.07668
O          4.66207        -7.19493         1.72983
O          9.24755         2.05968         2.47026
H          9.05298         2.72787         3.15823
O        -10.70273         1.79892        -1.51172
H         -9.92622         1.93854        -2.09983
O          3.21256         8.90043         2.11809
H          4.02391         8.49445         2.53296
O          5.59616         7.68265         2.68068
H          5.62279         6.69127         2.85107
O         10.46743         2.39719        -0.91875
H         10.42987         1.78651        -1.68709
O         -2.45186         1.00677        -2.55208
H         -3.29374         1.22094        -3.01204
O          6.00510         0.27668         1.09682
H          5.93772         1.07944         1.67767
H         12.06735        -1.16855         0.94732
H         12.20384         1.23286         0.60653
H         10.61989         3.33799         1.51908
H          9.41939         5.48387         1.41716
H          8.22641         7.67050         1.03709
H          6.98839         9.88361         1.10461
H          4.92296        11.15240         0.68607
H          2.27743        11.18785         0.73545
H         -0.09033        11.27669         0.20092
H         -2.49562        11.30170         0.08509
H         -5.06438        11.21988         0.50192
H         -7.10477         9.93356         0.83368
H         -8.47976         7.70587         0.59383
H         -8.72924         4.95050         2.13782
H        -10.88948         3.39823         0.87715
H        -12.15119         1.24632         0.84419
H        -12.01298        -1.15782         1.16252
H        -10.93403        -3.33789         0.57267
H         -9.59374        -5.51905         0.66745
H         -7.24374        -6.99825         1.75636
H         -6.54633        -9.54945         1.62759
H         -4.56067       -10.85901         1.13088
H         -2.33563       -11.26373        -0.43123
H          0.14435       -11.16321        -0.23933
H          2.55755       -11.13785         0.34170
H          5.07560       -11.09451         1.26690
H          7.13507       -10.00336         0.70118
H          8.46584        -7.63671         0.49850
H          9.52411        -5.45896         0.95918
H         10.76753        -3.34805         0.79274
