         244
 CSIRO Nanostructure Databank - Neutral Graphene Oxide Data Set
C          1.25206         2.00322        -0.65359
C          1.18378         3.37793        -0.60164
C          2.45916         1.29580        -0.45290
C          2.30884         4.16885        -0.10583
C          1.18274         6.37424        -0.47124
C          1.18683         7.76549        -0.51099
C          2.36235         5.64522        -0.26462
C          2.37842         8.49326        -0.32884
C          1.25353        10.70399        -0.59084
C          1.26932        12.14433        -0.56638
C          2.37866         9.95638        -0.36572
C          2.33950        12.85714        -0.10263
C          1.23416        15.14650        -0.49225
C          1.29980        16.51769        -0.46298
C          2.27715        14.32642         0.11392
C          2.50535        17.21882        -0.15711
C          2.56389        18.66928        -0.20978
C          3.67666         1.97237        -0.26441
C          3.65035         3.41589         0.04158
C          4.91935         1.32165        -0.36396
C          4.89433         4.19250        -0.07647
C          3.59731         6.34093        -0.11648
C          3.58769         7.77081        -0.12411
C          4.85210         5.60772        -0.04955
C          4.82331         8.49994         0.11980
C          3.69138        10.71013        -0.30388
C          3.55828        12.10300         0.31614
C          4.83250         9.89687         0.23997
C          4.83041        12.84666         0.68074
C          3.62089        15.07807         0.43415
C          3.69561        16.50047         0.08490
C          4.87718        14.32223         0.52436
C          4.96242        17.14076         0.02029
C          3.74565        19.32540        -0.23576
C          5.03544        18.57704        -0.44394
C          6.14353         2.03640        -0.30098
C          6.11995         3.47774        -0.20181
C          7.38112         1.35431        -0.37637
C          7.35678         4.18368        -0.24612
C          6.08689         6.34575        -0.05568
C          6.04666         7.74478         0.10765
C          7.34747         5.62975        -0.16463
C          7.29135         8.51226         0.03319
C          6.04029        10.62955         0.66097
C          6.12121        12.11211         0.62696
C          7.35120         9.88713         0.59862
C          7.32570        12.77595         0.64594
C          6.07989        14.98797         0.45558
C          6.14566        16.42195         0.25399
C          7.34502        14.27585         0.88057
C          7.41330        17.11716         0.30651
C          6.25445        19.28147         0.06326
C          7.42951        18.57184         0.29785
C          8.61208         2.04539        -0.40489
C          8.57083         3.47541        -0.38685
C          9.87062         1.35154        -0.35845
C          9.83051         4.21381        -0.52032
C          8.57245         6.30754        -0.11488
C          8.58484         7.76809        -0.10098
C          9.83780         5.63253        -0.14673
C          9.79954         8.48109         0.35758
C          8.61234        10.64490         0.42314
C          8.61061        12.09194         0.51429
C          9.77993         9.95351         0.23481
C          9.83158        12.77301         0.46235
C          8.59867        14.91233         0.26363
C          8.62696        16.41664         0.40178
C          9.88222        14.24487         0.79707
C          9.87146        17.09098         0.43286
C          8.67484        19.24089         0.47191
C          9.89447        18.53350         0.48446
C         11.11649         1.99395        -0.31310
C         11.15659         3.46512        -0.50727
C         12.33670         1.31268        -0.07209
C         12.35265         4.20564        -0.07079
C         11.04550         6.27188         0.12032
C         11.07006         7.71426         0.44425
C         12.28862         5.55195         0.20517
C         12.35574         8.43903         0.32593
C         11.03743        10.64562        -0.05354
C         11.06849        12.10829         0.14982
C         12.34354         9.88479        -0.00548
C         12.27631        12.79141         0.02424
C         11.12616        14.95355         0.31488
C         11.11950        16.37051         0.34342
C         12.32290        14.23266         0.12146
C         12.35427        17.07473         0.26391
C         11.14045        19.20800         0.49296
C         12.36733        18.51134         0.37270
C         13.58664         1.97276         0.02705
C         13.67078         3.47724        -0.16693
C         14.79822         1.30170         0.20120
C         14.73536         4.07396         0.75973
C         13.45624         6.28181         0.85922
C         13.51386         7.75969         0.48909
C         14.75963         5.56699         0.67735
C         14.81825         8.52343         0.59768
C         13.56989        10.64857         0.19800
C         13.53011        12.04509        -0.38444
C         14.81226         9.85923        -0.15868
C         14.80647        12.78760        -0.06948
C         13.57081        14.92037         0.03594
C         13.58650        16.35955         0.11908
C         14.80145        14.16761         0.03582
C         14.80521        17.08174         0.06575
C         13.60427        19.19530         0.36957
C         14.82934        18.49985         0.22613
C         16.06063         2.00436         0.30007
C         16.06312         3.40900         0.50033
C         17.30674         1.34267         0.20436
C         17.26791         4.13452         0.55113
C         16.00853         6.32049         1.02147
C         16.02289         7.65238         0.21358
C         17.27878         5.54836         0.75959
C         17.29045         8.44856         0.50570
C         16.09101        10.64198         0.07315
C         16.03746        12.00738        -0.01592
C         17.41186         9.88441        -0.04501
C         17.29759        12.71504        -0.32100
C         16.08555        14.92455         0.32957
C         16.07339        16.35297        -0.27746
C         17.30027        14.25478        -0.24928
C         17.33009        17.08843         0.11437
C         16.08322        19.18030         0.25164
C         17.30472        18.46387         0.28065
C         18.52427         2.05084         0.25876
C         18.52575         3.47364         0.41616
C         19.78613         1.37366         0.13789
C         19.74612         4.22627         0.41311
C         18.45847         6.26943         0.81128
C         18.31353         7.71105         1.01464
C         19.75111         5.66258         0.53624
C         20.19925         8.76354         0.58998
C         18.66826        10.75292         0.44923
C         18.57014        12.07103        -0.27218
C         19.98888        10.06166         0.11911
C         19.69632        12.77783        -0.98117
C         18.60943        14.92006        -0.16392
C         18.63540        16.34431         0.34661
C         19.74323        14.26013        -0.56662
C         19.81674        17.11170        -0.20617
C         18.60769        19.17853         0.58056
C         19.78304        18.51417        -0.10916
C         20.95724         2.07923         0.13032
C         20.97060         3.51119         0.23842
C         22.17718         4.23259         0.15373
C         20.97943         6.37441         0.29597
C         21.10190         7.83420         0.04709
C         22.16372         5.62056         0.13919
C         22.05849         8.40253        -0.82824
C         21.02487        10.63006        -0.65826
C         21.02991        12.07806        -0.85656
C         22.07233         9.77591        -1.08275
C         22.17850        12.81845        -0.93513
C         20.99741        14.97322        -0.74302
C         20.96008        16.44407        -0.70414
C         22.15542        14.25277        -0.96048
C         22.04232        17.22423        -1.16007
C         20.87550        19.26384        -0.56452
C         21.99231        18.61547        -1.09952
O          2.82639         3.74723         1.20122
O         17.08253        13.60077        -1.51123
O          3.92348        12.28833         1.70547
O         19.38695         8.34696         1.65241
O         10.29779         8.04435         1.67213
O          2.64362        14.74616         1.46187
O         10.57039         3.92115        -1.77138
O          6.68250        10.04433         1.87204
O         11.62423        10.15061        -1.33754
O          7.96842         8.40261        -1.27199
O         14.97104         8.91182         1.99826
H         14.28113         9.58855         2.18440
O         18.82356        16.30490         1.80962
H         19.66858        15.83925         1.98617
O         18.83538        19.13342         2.00194
H         18.82933        18.17766         2.25638
O         19.42378        12.76109        -2.42035
H         18.51492        13.13406        -2.54115
O          8.51219        14.61885        -1.15461
H          9.24571        15.08216        -1.61069
O         14.79705         9.60238        -1.60579
H         14.43878        10.44441        -2.01220
O         18.54257        10.97126         1.86679
H         18.74030        10.10901         2.30253
O         14.13484         3.71000        -1.52441
H         13.41661         3.45369        -2.14086
O         13.49878        11.94018        -1.87234
H         12.66699        11.42938        -2.06672
O         15.91895         7.24188        -1.15792
H         15.48132         7.96081        -1.67452
O         16.25588        15.00295         1.75394
H         15.50853        15.51247         2.13059
O         16.08010        16.14918        -1.72509
H         15.97949        17.02672        -2.14939
O          9.99120        14.36139         2.24109
H          9.08930        14.24467         2.63032
O         15.96527         6.55662         2.47208
H         15.79786         7.52116         2.62652
O          7.38069        14.46888         2.33033
H          6.60189        14.01194         2.71521
O          4.06394        11.00314        -1.70193
H          4.11013        10.15099        -2.18576
O         17.65155         9.71239        -1.46396
H         16.79658         9.45215        -1.88062
O          5.20096        18.50499        -1.92441
H          4.39417        18.07223        -2.27771
O         13.16650         6.23953         2.30259
H         14.01549         6.43380         2.76669
O         14.33582         3.73654         2.12428
H         14.91328         4.24203         2.73615
H          0.36053         1.43648        -0.95906
H          0.27941         3.88676        -0.96328
H          2.47040         0.20546        -0.59361
H          0.22528         5.84722        -0.58082
H          0.23477         8.28894        -0.66870
H          0.27964        10.22351        -0.75862
H          0.33664        12.66071        -0.83432
H          0.37599        14.65791        -0.97497
H          0.44446        17.10404        -0.83094
H          1.61462        19.22563        -0.18260
H          4.94351         0.23366        -0.52692
H          3.77388        20.42502        -0.25453
H          7.37832         0.25464        -0.41249
H          6.27593        20.38166         0.04549
H          9.84299         0.25432        -0.26945
H          8.69120        20.34093         0.48154
H         12.30706         0.22061         0.07111
H         11.15327        20.30630         0.55915
H         14.80963         0.20040         0.22311
H         13.61592        20.28932         0.48454
H         17.33017         0.25188         0.05955
H         16.09579        20.27424         0.36179
H         19.79409         0.27853         0.03721
H         18.53985        20.25597         0.28661
H         21.91875         1.55633         0.02051
H         23.12758         3.69102         0.04337
H         23.11598         6.15326         0.00668
H         22.81763         7.76776        -1.30685
H         22.87154        10.18982        -1.71367
H         23.15775        12.31698        -0.92532
H         23.11408        14.77562        -1.08471
H         22.93452        16.73694        -1.57675
H         20.85304        20.36091        -0.49554
H         22.84412        19.20622        -1.46441
