         200
 CSIRO Nanostructure Databank - Neutral Graphene Oxide Data Set
C        -11.13044         0.64248        -0.54830
C         -9.90456         1.39741        -0.63111
C         -8.66138         0.66607        -0.79037
C         -7.43752         1.35903        -0.93126
C         -6.20132         0.66425        -1.01753
C         -4.95276         1.39464        -0.94057
C         -3.71878         0.67549        -1.00690
C         -2.46761         1.35171        -0.87703
C         -1.22263         0.63863        -0.99394
C          0.01837         1.32143        -0.81573
C          1.25525         0.59412        -1.00535
C          2.51799         1.31771        -0.94601
C          3.72394         0.68257        -1.20795
C          5.00413         1.42736        -1.29048
C          6.28431         0.69386        -1.21926
C          7.52201         1.44021        -1.05250
C          8.73447         0.75902        -0.95311
C          9.94512         1.45992        -0.56213
C         11.13808         0.68441        -0.25953
C         -9.90511         2.78135        -0.48851
C         -8.69966         3.54234        -0.55984
C         -7.47369         2.82963        -0.97600
C         -6.14930         3.58023        -0.85567
C         -4.91658         2.78788        -0.74777
C         -3.69216         3.46224        -0.49885
C         -2.46063         2.74733        -0.58653
C         -1.22287         3.43951        -0.42226
C          0.01341         2.72652        -0.53647
C          1.23063         3.44686        -0.40417
C          2.52563         2.68462        -0.29437
C          3.75333         3.52526        -0.54216
C          5.01129         2.88722        -0.95486
C          6.28794         3.55833        -0.63971
C          7.48071         2.87319        -0.80031
C          8.77330         3.65614        -0.81618
C          9.95711         2.82326        -0.42478
C         -8.64388         4.89737        -0.25980
C         -7.40498         5.61122        -0.11199
C         -6.16697         4.94140        -0.31203
C         -4.93866         5.56513         0.00018
C         -3.69438         4.85669        -0.15990
C         -2.47153         5.52618         0.06797
C         -1.22756         4.83190        -0.11311
C         -0.00010         5.53640         0.01446
C          1.21807         4.82870        -0.17850
C          2.48268         5.58687        -0.20004
C          3.76726         4.86062        -0.24771
C          5.00958         5.59611        -0.06061
C          6.23521         4.93510        -0.20602
C          7.48317         5.59917         0.14334
C          8.68375         4.95534        -0.06143
C         -7.38388         6.95040         0.35473
C         -6.17735         7.60673         0.62863
C         -4.93378         6.91670         0.45345
C         -3.70021         7.57419         0.71766
C         -2.46849         6.89458         0.50017
C         -1.23763         7.56714         0.73809
C          0.00291         6.91744         0.45021
C          1.20795         7.61101         0.67960
C          2.48316         7.02549         0.24314
C          3.75690         7.61139         0.69735
C          4.96354         6.94142         0.48184
C          6.20641         7.57284         0.88465
C          7.41338         6.91768         0.71639
C         -6.14270         8.96793         1.10505
C         -4.96181         9.59394         1.38236
C         -3.69537         8.92855         1.19603
C         -2.48207         9.56178         1.47315
C         -1.23855         8.90592         1.25394
C         -0.00677         9.54145         1.54551
C          1.21870         8.90729         1.27428
C          2.48328         9.52833         1.57155
C          3.70492         8.90304         1.33143
C          4.95877         9.52304         1.69506
C          6.14534         8.89094         1.47523
C        -11.12982        -0.72114        -0.55089
C         -9.89766        -1.47197        -0.61024
C         -8.66103        -0.75218        -0.76139
C         -7.42742        -1.46357        -0.83910
C         -6.18902        -0.76583        -0.99843
C         -4.95154        -1.50120        -1.10254
C         -3.74118        -0.72107        -1.27912
C         -2.50303        -1.27209        -1.68627
C         -1.25248        -0.71884        -1.41175
C         -0.01035        -1.55213        -1.69489
C          1.24686        -0.76561        -1.33916
C          2.51429        -1.47178        -1.46603
C          3.78785        -0.74407        -1.31713
C          5.00518        -1.41316        -1.20278
C          6.25485        -0.69126        -1.21997
C          7.52490        -1.45938        -1.33442
C          8.85628        -0.69481        -1.36226
C          9.97236        -1.43673        -0.63996
C         11.14509        -0.67554        -0.28287
C         -9.88497        -2.85694        -0.47612
C         -8.65568        -3.57634        -0.40946
C         -7.42607        -2.87239        -0.62699
C         -6.18303        -3.55410        -0.48312
C         -4.94170        -2.89795        -0.81004
C         -3.71756        -3.67474        -0.62593
C         -2.48960        -3.30493        -1.20355
C         -1.22802        -3.68771        -0.67860
C         -0.00252        -2.96261        -1.01138
C          1.21110        -3.59513        -0.74432
C          2.50053        -2.99033        -1.14806
C          3.74703        -3.59669        -0.69852
C          4.99669        -2.77927        -0.55979
C          6.24810        -3.59063        -0.65953
C          7.51240        -2.93085        -1.01264
C          8.76381        -3.59999        -0.59145
C          9.94842        -2.79781        -0.44409
C         -8.62726        -4.95042        -0.08624
C         -7.40847        -5.59521         0.20264
C         -6.19754        -4.86298         0.06011
C         -4.95753        -5.41802         0.60815
C         -3.68431        -4.83389         0.19490
C         -2.45767        -5.47267         0.51656
C         -1.23279        -4.81582         0.17629
C          0.06016        -5.38838         0.57891
C          1.27905        -4.85742        -0.05079
C          2.48914        -5.54129         0.13386
C          3.74638        -4.89053        -0.17518
C          4.98844        -5.58138         0.03875
C          6.23631        -4.91891        -0.25105
C          7.48269        -5.65094        -0.10753
C          8.72080        -4.92825        -0.21719
C         -7.36348        -6.99928         0.54685
C         -6.18807        -7.65696         0.84287
C         -4.94750        -6.88772         1.04178
C         -3.64401        -7.56249         1.09707
C         -2.46665        -6.83133         1.03108
C         -1.20477        -7.51688         1.53300
C          0.08922        -6.79581         1.16541
C          1.31799        -7.57125         0.95677
C          2.51246        -6.90431         0.61400
C          3.74559        -7.62925         0.63402
C          4.98480        -6.95639         0.38397
C          6.21758        -7.67741         0.46435
C          7.44578        -7.00037         0.24278
C         -6.09351        -9.09076         0.97465
C         -4.89325        -9.71931         1.15279
C         -3.63245        -9.01264         1.19572
C         -2.42610        -9.69631         1.20382
C         -1.17424        -9.00280         1.23362
C          0.02485        -9.67378         1.17584
C          1.29747        -8.99264         1.09497
C          2.50628        -9.69845         1.08202
C          3.74082        -9.02579         0.91402
C          4.98928        -9.72581         0.97406
C          6.18146        -9.07180         0.77249
O         -1.29968        -7.45472         2.98935
H         -0.99749        -6.55302         3.24594
O          2.62882         2.36256         1.15731
H          1.84367         1.82128         1.39033
O          4.97009         2.43484        -2.37448
O          9.29149        -0.64159        -2.75338
H          8.91111        -1.43939        -3.19239
O          9.00171         4.03974        -2.23064
H          8.15287         4.39113        -2.57601
O          0.01368        -1.78184        -3.12667
H          0.89091        -2.18561        -3.33694
O          4.97093        -2.37859         0.90560
H          4.95936        -3.21249         1.42642
O          2.54882        -2.49026        -2.53572
O         -5.06435        -5.80042         2.01717
O          7.48932        -2.43888        -2.43338
O         -6.82765         3.42068        -2.15108
O          0.25893        -5.61751         2.02819
O          2.47320         6.67365        -1.19608
O         -2.53203        -2.50975        -2.34840
H         12.04906        -1.22728         0.01798
H         12.04455         1.23498         0.03254
H         10.88336         3.33633        -0.12364
H          9.62391         5.47150         0.18748
H          8.34953         7.41183         1.01705
H          7.09102         9.37487         1.76126
H          4.93659        10.52034         2.15833
H          2.47637        10.52592         2.03621
H         -0.01136        10.55414         1.97524
H         -2.48179        10.59325         1.85637
H         -4.95816        10.63115         1.74885
H         -7.09637         9.49768         1.24640
H         -8.33600         7.47874         0.51313
H         -9.57651         5.42507        -0.00770
H        -10.85236         3.30396        -0.28606
H        -12.07794         1.19543        -0.46744
H        -12.07609        -1.27629        -0.47171
H        -10.83143        -3.40113        -0.33931
H         -9.57387        -5.49826         0.03120
H         -8.29897        -7.57507         0.47427
H         -7.01884        -9.68229         0.91014
H         -4.86437       -10.81604         1.23591
H         -2.42115       -10.79575         1.14868
H          0.02630       -10.77354         1.12114
H          2.50015       -10.78894         1.22596
H          4.98035       -10.80376         1.19156
H          7.13038        -9.62486         0.83023
H          8.38850        -7.55736         0.35242
H          9.65196        -5.43851         0.07336
H         10.84389        -3.28918        -0.03012
