         640
 CSIRO Nanostructure Databank - Neutral Graphene Oxide Data Set
C         23.47327        27.59303        -2.50371
C         23.35390        28.91740        -2.12357
C         23.16784        31.75053        -1.26663
C         23.10812        33.07933        -0.87417
C         23.24333        36.05319        -1.05015
C         23.29359        37.41418        -1.06901
C         23.16462        40.36396        -0.76911
C         23.15529        41.73134        -0.66036
C         23.09715        44.65940        -0.21755
C         23.04118        45.97584         0.15525
C         26.06398        24.93935        -3.01637
C         24.86743        25.54510        -2.87091
C         25.90120        27.73659        -2.37250
C         24.74508        26.97526        -2.62206
C         25.77849        29.08588        -1.90793
C         24.49794        29.69496        -1.79263
C         25.59123        31.79182        -1.00941
C         24.40896        31.07631        -1.36043
C         25.52786        33.16791        -0.62059
C         24.27289        33.80905        -0.57525
C         25.43542        35.95836         0.08237
C         24.12596        35.24226        -0.12356
C         25.31899        37.41799         0.44958
C         24.27357        38.16869        -0.34915
C         25.43442        40.29173         0.16459
C         24.27843        39.58067        -0.31654
C         25.45033        41.71273         0.19789
C         24.28296        42.45676        -0.15989
C         25.44222        44.54172         0.50093
C         24.27315        43.87553         0.01539
C         25.40056        45.91599         0.87244
C         24.15760        46.61702         0.78324
C         25.05727        48.39941         2.14367
C         24.01751        47.88924         1.37321
C         28.81540        23.71904        -3.28225
C         28.60910        25.00432        -2.75951
C         27.33019        25.75166        -3.11054
C         28.31014        27.71420        -1.91359
C         27.20041        27.08389        -2.41335
C         28.29600        29.20436        -1.77052
C         26.94573        29.81250        -1.52321
C         28.06418        31.83838        -0.65320
C         26.86305        31.12943        -1.05768
C         27.98239        33.22309        -0.24078
C         26.73592        33.88087        -0.24944
C         27.85998        35.97810         0.51299
C         26.65154        35.28658         0.10885
C         27.83492        37.41899         0.69996
C         26.63658        38.14180         0.48552
C         27.84565        40.26668         0.69252
C         26.62821        39.55581         0.48023
C         27.85850        41.68600         0.73745
C         26.65111        42.41542         0.55942
C         27.87157        44.54017         1.02301
C         26.65760        43.82778         0.70892
C         27.86990        45.92747         1.35853
C         26.55263        46.54408         1.45704
C         28.28508        48.80242         2.47956
C         26.28039        47.71836         2.19174
C         28.35101        50.18794         2.68143
C         30.99474        23.49465        -2.18547
C         29.97623        22.98448        -2.98761
C         30.98116        24.95445        -1.80177
C         29.63978        25.62911        -2.02800
C         30.52091        27.57998        -0.80101
C         29.52061        26.97453        -1.60260
C         30.49099        28.98204        -0.53546
C         29.37148        29.76078        -0.89294
C         30.56545        31.89013        -0.41824
C         29.28173        31.14376        -0.58660
C         30.43163        33.22567         0.26244
C         29.16281        33.90310         0.24276
C         30.24301        35.92772         1.26353
C         29.06316        35.26438         0.65216
C         30.27622        37.44659         1.46896
C         29.03679        38.13180         0.94545
C         30.30106        40.25097         0.90573
C         29.05131        39.53675         0.89708
C         30.31479        41.66073         0.86100
C         29.08939        42.39513         0.88647
C         30.34194        44.52851         0.96346
C         29.10021        43.81106         0.98707
C         30.33856        45.96479         1.10741
C         29.13984        46.64082         1.45307
C         30.45119        48.80218         1.43525
C         29.25839        48.07157         1.76855
C         30.50253        50.22474         1.57866
C         29.42268        50.90533         2.17860
C         33.35844        20.57373        -1.81618
C         32.34823        21.40036        -2.27678
C         32.82234        23.08164        -0.55133
C         32.07257        22.67738        -1.70401
C         32.70064        24.43091         0.05837
C         31.44318        25.21996        -0.35757
C         32.77840        27.41333         0.43221
C         31.52893        26.73355        -0.12075
C         32.84964        28.88884         0.31974
C         31.66368        29.63774         0.02851
C         32.88676        31.71292         0.44990
C         31.69241        31.03809         0.10310
C         32.87306        33.12890         0.66005
C         31.60362        33.83311         0.68822
C         32.82600        35.98093         1.35438
C         31.55010        35.19144         1.26389
C         32.80381        37.41827         0.98342
C         31.55315        38.11725         0.95681
C         32.70995        40.23459         0.32784
C         31.51483        39.50054         0.76466
C         32.74841        41.69441         0.46125
C         31.55076        42.39258         0.72432
C         32.76468        44.54336         0.27683
C         31.53676        43.81555         0.74801
C         32.80322        45.98819         0.68562
C         31.60585        46.67202         0.95614
C         32.84536        48.81593         0.79235
C         31.63874        48.10411         1.04549
C         32.86581        50.25502         0.83058
C         31.68903        50.95609         1.18503
C         32.86750        53.07156         0.89865
C         31.71295        52.37711         1.17768
C         35.38841        18.83468        -0.51351
C         35.32487        20.23848        -0.26778
C         34.10665        20.93797        -0.66675
C         35.37042        23.05978         0.85258
C         33.68556        22.11578        -0.01401
C         35.27607        24.43952         0.75042
C         33.98344        25.16279         0.69681
C         35.24168        27.34888         0.59612
C         34.04208        26.65327         0.59529
C         35.30953        28.80277         0.59134
C         34.06442        29.55106         0.52741
C         35.32102        31.67960         0.74599
C         34.09756        30.98048         0.59867
C         35.32518        33.08214         0.78565
C         34.09134        33.78671         0.87847
C         35.34245        35.97257         0.85225
C         34.11875        35.23220         1.18201
C         35.29514        37.37789         0.77490
C         34.02269        38.06577         0.74041
C         35.28259        40.24778         0.33639
C         34.03177        39.46581         0.30517
C         35.24351        41.63195         0.28632
C         34.00697        42.39277         0.40272
C         35.32554        44.50552         0.76570
C         34.03792        43.77623         0.49459
C         35.27488        45.97250         0.42771
C         34.04469        46.68160         0.54551
C         35.27133        48.81104         0.24009
C         34.05451        48.11123         0.52713
C         35.28526        50.26464         0.25447
C         34.07633        50.97267         0.56610
C         35.31965        53.11946         0.43715
C         34.08846        52.39599         0.62416
C         35.37436        54.54395         0.50781
C         37.80377        18.76614        -0.20227
C         36.54787        18.10765        -0.37556
C         37.78404        20.20717         0.00574
C         36.51486        20.91704         0.16408
C         37.78013        23.04335         0.58565
C         36.55014        22.30845         0.52470
C         37.81878        24.43604         0.71748
C         36.54935        25.16705         0.89011
C         37.80659        27.36523         0.58224
C         36.53324        26.66456         0.84975
C         37.79127        28.77638         0.54901
C         36.52894        29.47290         0.65899
C         37.82928        31.65679         0.52918
C         36.59575        30.93436         1.03097
C         37.76551        33.09733         0.40053
C         36.58357        33.80459         0.63549
C         37.74300        35.99296         0.49749
C         36.55256        35.25643         0.62736
C         37.75189        37.40802         0.58854
C         36.51305        38.10950         0.60168
C         37.76145        40.19120         0.28580
C         36.52728        39.52283         0.40090
C         37.79093        41.59366        -0.11225
C         36.45979        42.37637        -0.05640
C         37.71865        44.50737        -0.02309
C         36.53651        43.82160         0.16609
C         37.73503        45.94475         0.02244
C         36.47916        46.65824         0.17294
C         37.68777        48.75827        -0.39662
C         36.45092        48.07642         0.01289
C         37.70198        50.28379        -0.35625
C         36.47689        50.98463         0.05726
C         37.77246        53.11329         0.06725
C         36.52407        52.40758         0.18873
C         37.79814        54.53731         0.17975
C         36.55831        55.22352         0.37606
C         40.28687        15.94975         0.01949
C         39.11152        16.62854         0.08819
C         40.27744        18.75430        -0.43169
C         39.01917        18.04206        -0.19034
C         40.25904        20.26837        -0.22936
C         38.99364        20.88471         0.16546
C         40.33585        23.05956         0.55293
C         39.02480        22.27640         0.62283
C         40.25404        24.50433         0.40115
C         39.05335        25.17829         0.60090
C         40.23473        27.37651         0.40700
C         39.02327        26.64919         0.53082
C         40.22492        28.77994         0.30508
C         39.00892        29.50150         0.39494
C         40.25982        31.65700        -0.16016
C         38.99838        30.95445         0.31865
C         40.29428        33.12516         0.13743
C         38.99883        33.81712         0.02233
C         40.24938        36.02767         0.39865
C         38.99514        35.32772         0.14294
C         40.24235        37.38749         0.64592
C         38.99453        38.11144         0.60168
C         40.23667        40.25090         0.48236
C         39.00016        39.52176         0.49224
C         40.22696        41.67307         0.28141
C         39.03048        42.34379        -0.00423
C         40.24666        44.52583        -0.09967
C         38.98884        43.77957        -0.45689
C         40.22257        45.92714        -0.13459
C         38.96200        46.64148        -0.14620
C         40.18809        48.77745        -0.38561
C         38.97551        48.05482        -0.28396
C         40.17373        50.22338        -0.40572
C         39.00542        50.95190        -0.23939
C         40.22487        53.09127        -0.04026
C         39.01035        52.39767        -0.06653
C         40.25374        54.51555        -0.07247
C         39.03318        55.24592         0.07115
C         40.26324        57.36369        -0.04660
C         39.11742        56.68746         0.20531
C         42.81625        15.92008        -0.05304
C         41.55190        16.57695        -0.52396
C         42.75905        18.77126        -0.14937
C         41.57319        18.06529        -0.29948
C         42.76383        20.22323        -0.06825
C         41.55083        20.95191        -0.00469
C         42.79004        23.06008         0.09309
C         41.56903        22.34425         0.16598
C         42.78929        24.49899         0.14717
C         41.48882        25.24676        -0.06836
C         42.80180        27.33725         0.32408
C         41.51943        26.60585         0.62005
C         42.80177        28.78169         0.09277
C         41.49748        29.51321         0.05170
C         42.75101        31.66509         0.28946
C         41.54222        30.97338         0.20852
C         42.74594        33.10828         0.34195
C         41.48904        33.80218         0.27600
C         42.62057        35.89757         1.09656
C         41.55620        35.31484         0.17284
C         42.68367        37.41454         0.97576
C         41.49447        38.11633         0.81112
C         42.67327        40.29207         0.76353
C         41.47166        39.56770         0.69925
C         42.68643        41.70439         0.54712
C         41.47376        42.39873         0.29390
C         42.69634        44.53846         0.14829
C         41.46469        43.81886         0.10475
C         42.69457        45.94980        -0.02448
C         41.45432        46.66309        -0.14712
C         42.68921        48.80119        -0.30998
C         41.43685        48.06967        -0.30931
C         42.70101        50.17761        -0.39785
C         41.45812        50.98504        -0.65070
C         42.74633        53.08214        -0.24398
C         41.50565        52.31188         0.13521
C         42.72020        54.49735        -0.38488
C         41.48516        55.20206        -0.28047
C         42.76571        57.34445        -0.39748
C         41.45140        56.66213        -0.64145
C         43.96217        16.62175         0.10764
C         45.23079        18.77806         0.08776
C         44.01981        18.06538        -0.01913
C         45.24675        20.20989         0.11659
C         43.99704        20.92849         0.01164
C         45.28672        23.08102        -0.21633
C         44.00182        22.34113         0.01625
C         45.25189        24.51802         0.22635
C         43.99574        25.19647         0.26761
C         45.25195        27.36918         0.41544
C         43.99395        26.65186         0.34034
C         45.24831        28.79675         0.50258
C         44.03969        29.53145         0.35329
C         45.24978        31.63218         0.58915
C         44.01867        30.93674         0.40759
C         45.29650        33.13822         0.40630
C         43.96724        33.84857         0.57465
C         45.13657        35.93408         1.48155
C         43.94248        35.18835         0.90614
C         45.13814        37.41335         1.13775
C         43.93979        38.10157         1.07955
C         45.19252        40.29677         0.88502
C         43.91563        39.60457         1.27257
C         45.18014        41.70339         0.66725
C         43.93097        42.42187         0.53673
C         45.17082        44.53182         0.20044
C         43.93286        43.82138         0.30988
C         45.17301        45.93921        -0.01311
C         43.93519        46.66018        -0.07668
C         45.18599        48.75253        -0.37027
C         43.94748        48.07007        -0.21061
C         45.20766        50.17542        -0.55610
C         43.97912        50.91518        -0.10725
C         45.11614        53.04677        -0.83049
C         43.94281        52.37818        -0.45079
C         45.15473        54.47652        -0.82413
C         43.94845        55.20690        -0.56799
C         43.92641        56.64801        -0.43687
C         47.67124        18.75149         0.36095
C         46.52069        18.09993         0.09669
C         47.67470        20.18305         0.83943
C         46.45736        20.93195         0.33576
C         47.70980        23.06674         0.43669
C         46.49752        22.33170         0.26761
C         47.70674        24.48973         0.43715
C         46.45904        25.21088         0.38930
C         47.69421        27.36207         0.68994
C         46.46205        26.65349         0.50344
C         47.68046        28.76343         0.84953
C         46.46869        29.49587         0.74616
C         47.71057        31.65269         0.96214
C         46.44456        30.93069         0.80771
C         47.70463        33.05170         1.03154
C         46.39041        33.73463         1.31817
C         47.58616        35.91741         0.58719
C         46.41361        35.22018         1.18437
C         47.59147        37.38926         0.94467
C         46.41110        38.10971         1.05848
C         47.62088        40.26928         0.71361
C         46.41403        39.57434         0.93452
C         47.64482        41.68675         0.50609
C         46.40200        42.41379         0.52855
C         47.63574        44.53053         0.16997
C         46.41003        43.82916         0.30309
C         47.64266        45.91045        -0.11447
C         46.40691        46.62679        -0.18732
C         47.63976        48.72806        -0.65930
C         46.41460        48.03413        -0.41640
C         47.61495        50.12317        -1.00880
C         46.35857        50.83030        -0.94733
C         47.57865        52.99271        -1.42760
C         46.26149        52.26355        -1.42542
C         47.58127        54.36611        -1.28634
C         46.40717        55.10986        -1.03929
C         50.20084        20.26200         0.58849
C         48.96895        20.93500         0.59863
C         50.18786        23.07423         0.45473
C         48.95827        22.34542         0.51900
C         50.18222        24.50280         0.49858
C         48.93929        25.21865         0.54873
C         50.18705        27.35179         0.76205
C         48.94170        26.63103         0.68589
C         50.20180        28.75324         0.93622
C         48.92988        29.46788         1.30865
C         50.16256        31.63884         1.01888
C         48.94429        30.94513         1.00950
C         50.16710        33.07439         0.98919
C         48.92033        33.79004         0.98207
C         50.11931        35.91526         0.82871
C         48.90044        35.20796         0.87726
C         50.14373        37.34858         0.79952
C         48.88738        38.05939         1.06453
C         50.14157        40.20792         0.44364
C         48.90687        39.59653         0.91933
C         50.04689        41.57518        -0.17994
C         48.85804        42.35177         0.29513
C         50.15887        44.50450        -0.04351
C         48.93024        43.83074         0.51631
C         50.11282        45.90339        -0.23364
C         48.88376        46.61839        -0.30714
C         50.09732        48.72067        -0.88651
C         48.87538        48.01792        -0.60702
C         50.05996        50.10981        -1.25052
C         48.81373        50.79412        -1.33618
C         50.08278        52.90655        -1.81561
C         48.76578        52.19274        -1.93104
C         51.39764        20.95296         0.44727
C         52.66019        23.09562         0.24987
C         51.42293        22.36200         0.37662
C         52.65038        24.51080         0.35753
C         51.41624        25.21894         0.50894
C         52.66857        27.34266         0.72082
C         51.42701        26.63939         0.63833
C         52.66818        28.77477         0.87633
C         51.42644        29.47545         0.95974
C         52.64154        31.61389         1.05384
C         51.42029        30.91259         1.02596
C         52.65107        33.07711         1.03074
C         51.38966        33.79180         0.99303
C         52.58129        35.95826         0.86457
C         51.36948        35.21321         0.89243
C         52.59542        37.35443         0.66306
C         51.34498        38.06249         0.66413
C         52.56242        40.15826         0.02279
C         51.33601        39.49767         0.42704
C         52.52736        41.57694        -0.24808
C         51.35744        42.31446        -0.14826
C         52.59359        44.43245        -0.46589
C         51.36145        43.76576        -0.22032
C         52.67653        45.89614        -0.37732
C         51.36218        46.67204        -0.30448
C         52.55579        48.69957        -1.15507
C         51.34405        48.05648        -0.79564
C         52.52135        50.09069        -1.50123
C         51.28769        50.79955        -1.48298
C         51.24346        52.23660        -1.66820
C         55.07306        23.14088        -0.11938
C         53.89730        22.43423         0.02398
C         55.11230        24.54928         0.03495
C         53.88594        25.23975         0.34751
C         55.20185        27.28363         0.94079
C         53.88697        26.62274         0.61878
C         55.17012        28.79486         0.85683
C         53.89501        29.50300         0.97594
C         55.12123        31.67107         1.50690
C         53.86997        30.89877         1.11757
C         55.13930        33.03653         0.78018
C         53.84461        33.77580         1.03196
C         55.14104        36.01986         0.97825
C         53.83516        35.24160         1.12506
C         55.07365        37.39955         0.47630
C         53.83141        38.06541         0.41032
C         55.02480        40.12514        -0.31745
C         53.78544        39.45101         0.01301
C         55.03200        41.50174        -0.62972
C         53.73444        42.21933        -0.88242
C         54.99205        44.40258        -0.91678
C         53.78807        43.71795        -0.71197
C         55.02461        45.82160        -1.13108
C         53.85035        46.57677        -0.94292
C         54.96712        48.60930        -1.75758
C         53.79886        47.96753        -1.24847
C         54.90512        50.00409        -2.04152
C         53.74046        50.71913        -1.89940
C         57.47625        24.69894        -0.75819
C         56.31620        25.29448        -0.17875
C         57.55473        27.38684         0.08406
C         56.37297        26.67239         0.20217
C         57.68207        28.74038         0.74623
C         56.35183        29.47302         0.82052
C         57.64913        31.67198         0.96798
C         56.40583        30.90049         1.21180
C         57.60800        33.15563         1.04410
C         56.41261        33.84084         1.02273
C         57.58582        35.98058         0.62141
C         56.41051        35.27333         0.87184
C         57.54278        37.34794         0.16051
C         56.29275        38.04312         0.09449
C         57.48640        40.08209        -0.63332
C         56.26843        39.41982        -0.28062
C         57.47933        41.48272        -0.91412
C         56.24490        42.18200        -0.83459
C         57.52559        44.34654        -1.36574
C         56.25678        43.64982        -0.87855
C         57.39521        45.71709        -1.88084
C         56.21044        46.46336        -1.64757
C         57.30682        48.41196        -2.64056
C         56.16638        47.84413        -2.00198
C         58.62938        25.42104        -0.93931
C         59.86276        27.54948        -0.74557
C         58.70891        26.78526        -0.52209
C         59.85321        28.94362        -0.48582
C         58.80968        29.57175         0.15049
C         60.08889        31.73652         0.57624
C         58.78262        31.08757         0.15127
C         60.12479        33.00907         1.00306
C         58.90114        33.82728         1.18027
C         60.08502        36.02072         0.35472
C         58.89169        35.35489         0.88045
C         59.99004        37.25302        -0.20265
C         58.74359        37.98746        -0.25391
C         59.88572        40.02749        -1.14071
C         58.71369        39.34904        -0.68258
C         59.86007        41.35064        -1.50401
C         58.67719        42.14109        -1.38163
C         59.69995        44.14077        -2.51196
C         58.66147        43.50867        -1.77221
C         59.63374        45.47194        -2.86768
C         58.48807        46.28448        -2.57008
C         58.41679        47.65359        -2.94797
O         39.81581        22.53491         1.83291
O         57.21257        44.23274         0.07063
O         32.91185        24.56457         1.48225
O         42.15040        29.10414        -1.22747
O         36.54748        25.97658         2.15455
O         33.27116        39.71626        -0.93105
O         54.53655        35.80157         2.30347
O         37.55019        49.55116        -1.62636
O         52.20406        46.47372         0.88909
O         34.23863        22.33985         1.25150
O         33.61325        35.61719         2.53077
O         40.20447        19.67459        -1.58351
O         31.65834        27.01609         1.30740
O         59.00768        34.81354         2.23854
O         57.43297        31.06976         2.29600
O         38.91496        34.65713        -1.18822
O         48.99517        38.94251         2.22705
O         30.71374        35.23701         2.47831
O         27.21900        48.16811         3.12488
O         37.02335        41.91964        -1.33950
O         43.84010        39.75609         2.74723
H         43.90574        40.71451         2.94674
O         41.36059        25.46800        -1.50104
H         41.71620        24.68547        -1.97135
O         41.57653        52.00950         1.55515
H         42.49080        51.67070         1.74248
O         53.49851        42.02576        -2.33864
H         52.62816        42.43082        -2.54534
O         38.96320        43.74559        -1.92614
H         38.20840        43.15418        -2.17051
O         45.75383        33.40206        -0.95497
H         45.04730        33.12011        -1.57434
O         55.14973        32.70050        -0.64234
H         55.19659        33.53090        -1.16030
O         44.92310        35.88441         2.95412
H         45.15965        34.95845         3.21993
O         40.20733        31.56125        -1.64101
H         40.64542        30.71986        -1.90046
O         30.39427        24.73459         0.50123
H         30.67306        24.93715         1.42244
O         42.21676        35.61266         2.46320
H         42.98540        35.86560         3.03381
O         48.87755        29.40484         2.79261
H         48.94745        28.45905         3.04500
O         30.25853        37.69797         2.90359
H         30.63376        36.88848         3.32985
O         44.09169        50.90728         1.38598
H         44.16815        49.96755         1.66228
O         23.43628        35.19104         1.16993
H         23.59504        36.06420         1.60999
O         45.43132        23.14832        -1.69885
H         45.49898        22.22335        -2.02027
O         49.06384        43.99507         1.98963
H         49.28296        44.93659         2.15981
O         41.56177        26.31273         2.05142
H         41.42736        27.14681         2.54751
O         55.02764        31.89834         2.92218
H         55.94119        31.84750         3.28788
O         41.45846        51.36417        -2.06297
H         41.32087        50.55116        -2.59342
O         55.45745        27.00614         2.36155
H         56.35452        27.37618         2.55867
O         30.96964        32.22458        -1.81098
H         31.07758        31.37453        -2.29050
O         46.00319        33.37905         2.69232
H         46.82040        33.33437         3.23319
O         41.95582        35.59865        -1.19797
H         41.22692        35.28740        -1.77918
O         27.46592        26.10058        -4.53897
H         28.05038        26.88709        -4.59448
O         24.81909        37.44555         1.85941
H         25.55202        37.12639         2.42993
O         31.97414        25.62964        -2.64145
H         31.71565        25.49354        -3.57756
O         47.40365        35.85064        -0.88657
H         46.95528        34.99057        -1.08549
O         36.73523        30.94309         2.50329
H         35.95285        30.48411         2.87759
O         35.51372        44.42664         2.23483
H         36.28802        44.98598         2.45898
O         47.53444        20.12259         2.30353
H         46.67576        19.68873         2.49464
O         58.03243        28.43982         2.14804
H         58.04473        29.31412         2.61263
O         45.87807        52.12430        -2.86680
H         45.67941        53.02806        -3.19643
O         49.79211        41.33620        -1.63589
H         50.48741        40.71874        -1.95139
O         58.51418        31.51300        -1.22203
H         59.15253        31.05575        -1.80902
O         28.67722        29.68407        -3.14179
H         28.59119        30.66288        -3.13018
O         48.54182        52.00340        -3.37326
H         47.58591        51.76640        -3.48190
O         32.61310        44.59907        -1.20711
H         32.56293        43.67222        -1.52783
O         41.49956        16.37567        -1.98664
H         40.81297        16.98345        -2.33684
O         41.24429        56.70003        -2.11486
H         40.40970        56.21679        -2.29733
H         22.57021        27.00125        -2.71255
H         22.35040        29.35842        -2.05281
H         22.23295        31.22438        -1.50131
H         22.12919        33.57049        -0.78659
H         22.48118        35.53214        -1.64819
H         22.57546        37.95732        -1.70225
H         22.27053        39.85688        -1.15717
H         22.25587        42.27699        -0.97661
H         22.20605        44.19039        -0.65549
H         22.11221        46.54929         0.02285
H         26.11699        23.85089        -3.16635
H         23.94156        24.94951        -2.87939
H         24.92983        49.31961         2.72827
H         23.05803        48.42076         1.30545
H         28.03194        23.24774        -3.89106
H         27.54797        50.68627         3.23912
H         30.02543        21.94228        -3.33381
H         29.45221        51.99206         2.32431
H         33.60136        19.65260        -2.36428
H         31.79241        21.09045        -3.17194
H         32.83388        54.16863         0.90844
H         30.79918        52.94685         1.39074
H         34.45794        18.31087        -0.77520
H         34.45514        55.12113         0.67221
H         36.52482        17.01883        -0.52093
H         36.54605        56.31972         0.43657
H         40.30560        14.87443         0.25303
H         38.20278        16.09793         0.41060
H         40.29944        58.45729         0.06826
H         38.23595        57.24297         0.55555
H         42.81434        14.82771         0.07933
H         42.77486        58.43860        -0.28370
H         44.87746        16.08479         0.39645
H         44.88029        57.18537        -0.33323
H         48.61517        18.18861         0.34104
H         46.55682        17.03424        -0.17155
H         48.52128        54.92845        -1.37975
H         46.48498        56.20370        -0.99354
H         50.23809        19.16949         0.69223
H         50.11103        53.99358        -1.97447
H         52.33423        20.38044         0.42935
H         52.18550        52.80265        -1.65820
H         55.99839        22.58663        -0.32540
H         53.92542        21.34111        -0.07519
H         55.80357        50.53146        -2.38820
H         53.74772        51.78796        -2.14975
H         57.44797        23.64949        -1.08100
H         57.29928        49.47056        -2.93224
H         59.51063        24.95381        -1.40208
H         60.73623        27.09341        -1.23154
H         60.70120        29.54257        -0.85639
H         61.02370        31.16171         0.49309
H         61.08111        33.46518         1.29943
H         61.05995        35.52212         0.44390
H         60.90606        37.72747        -0.57806
H         60.83747        39.48629        -1.21859
H         60.78890        41.82138        -1.85389
H         60.58377        43.55904        -2.80932
H         60.46706        45.92752        -3.42174
H         59.26704        48.10961        -3.47508
