         404
 CSIRO Nanostructure Databank - Neutral Graphene Oxide Data Set
C          2.69860         2.37777        -4.90509
C          2.63295         3.74831        -4.87246
C          3.87021         1.66289        -4.53865
C          3.83837         4.54485        -4.61587
C          2.51861         6.52714        -3.67416
C          2.42726         7.81743        -3.33176
C          3.73459         6.05412        -4.43607
C          3.53007         8.79274        -3.72984
C          2.21437        10.65196        -2.63970
C          2.05962        11.87557        -1.99846
C          3.47305        10.12823        -2.98909
C          3.16459        12.74171        -1.82443
C          1.79256        14.50894        -0.65541
C          1.70568        15.54311         0.21096
C          3.06077        14.04406        -1.21258
C          2.95436        16.22156         0.72939
C          2.74089        17.64051         1.21425
C          5.00106         2.31706        -4.04006
C          5.06542         3.79327        -4.12872
C          6.12259         1.61991        -3.53442
C          6.06190         4.52458        -3.33072
C          4.96418         6.71696        -3.80784
C          4.86321         8.06615        -3.56397
C          6.08039         5.90853        -3.30076
C          6.04245         8.85993        -3.16823
C          4.63400        10.92481        -2.78182
C          4.42998        12.29320        -2.33085
C          5.93840        10.29328        -2.82402
C          5.44074        13.27997        -2.38076
C          4.18020        14.90754        -1.10266
C          4.02412        16.13559        -0.33596
C          5.44026        14.50544        -1.67909
C          4.83021        17.22826        -0.52318
C          3.67013        18.61509         1.09831
C          4.91103        18.36143         0.37017
C          7.16436         2.28134        -2.84771
C          6.89746         3.69530        -2.37354
C          8.31047         1.60921        -2.42998
C          8.12312         4.40161        -1.85506
C          7.12471         6.57140        -2.53424
C          7.23798         8.04333        -2.61975
C          8.06647         5.84330        -1.81881
C          8.20008         8.74560        -1.76189
C          7.11926        10.90984        -2.31873
C          7.26103        12.32398        -2.26415
C          8.18239        10.15305        -1.70005
C          8.07926        13.01013        -1.34562
C          6.72390        15.13636        -1.36912
C          6.73906        16.52092        -1.08006
C          7.91920        14.40912        -1.03988
C          7.66247        17.17793        -0.25531
C          6.10268        19.03693         0.56341
C          7.43352        18.51101         0.29304
C          9.34433         2.23872        -1.65286
C          9.21701         3.67802        -1.38390
C         10.45332         1.53567        -1.22053
C         10.37657         4.33910        -0.81145
C          9.05360         6.54903        -0.98144
C          9.16890         8.00981        -1.04656
C         10.25238         5.77194        -0.47252
C         10.24987         8.66385        -0.42327
C          9.17717        10.83483        -0.92958
C          9.10235        12.24168        -0.70794
C         10.25961        10.09398        -0.36674
C         10.04666        12.89287         0.12555
C          8.92041        15.05895        -0.24306
C          8.82023        16.43805         0.13153
C          9.98912        14.30409         0.33481
C          9.88990        17.09436         0.80848
C          8.54257        19.17197         0.81442
C          9.81408        18.52346         0.97367
C         11.47010         2.15689        -0.29669
C         11.52770         3.65053        -0.50157
C         12.82987         1.51748        -0.23962
C         12.77714         4.35702        -0.18261
C         11.42435         6.53671        -0.05014
C         11.37248         7.90770         0.07269
C         12.71963         5.84530         0.06123
C         12.58668         8.62270         0.51987
C         11.27575        10.77846         0.34199
C         11.11462        12.13088         0.67885
C         12.53371        10.10850         0.69893
C         11.97923        12.71626         1.65582
C         10.95058        14.92630         1.19308
C         11.03320        16.37553         1.27529
C         11.78599        14.07565         1.95605
C         12.21828        17.09858         1.62733
C         10.97990        19.21903         1.31343
C         12.21455        18.53513         1.50050
C         13.96989         2.21917         0.20327
C         13.95717         3.64492         0.28884
C         15.18838         1.53923         0.53617
C         15.23780         4.43364         0.45759
C         13.74044         6.42488         0.97930
C         13.61626         7.89807         1.31089
C         15.03518         5.78194         1.11782
C         14.81211         8.64107         1.76175
C         13.45395        10.71817         1.68009
C         13.03720        11.92527         2.22380
C         14.70955        10.04785         1.98740
C         14.87564        13.03930         2.71884
C         13.62547        15.17506         2.44489
C         13.49970        16.47501         1.90863
C         14.82662        14.43660         2.40266
C         14.72168        17.18055         1.70838
C         13.42950        19.26043         1.55894
C         14.68728        18.61313         1.58286
C         16.31892         2.22831         1.04686
C         16.32112         3.65927         1.14676
C         17.46823         1.52535         1.47791
C         17.40046         4.36108         1.71125
C         16.10119         6.48468         1.69799
C         16.00216         7.91015         1.99307
C         17.34504         5.79298         1.92070
C         17.17464         8.62119         2.40940
C         15.89673        10.76431         2.38186
C         15.96149        12.23923         2.40468
C         17.09283        10.04676         2.55955
C         17.19690        12.92515         2.07298
C         16.00610        15.07616         1.91625
C         15.96746        16.48283         1.70075
C         17.22610        14.34386         1.80087
C         17.20188        17.17740         1.52296
C         15.91677        19.30714         1.59329
C         17.15805        18.62601         1.59726
C         18.61822         2.21317         1.92938
C         18.59206         3.64726         2.05793
C         19.80667         1.51527         2.23702
C         19.76380         4.35470         2.43669
C         18.47763         6.49573         2.41686
C         18.38929         7.89707         2.63754
C         19.73449         5.78486         2.61024
C         19.57295         8.61256         3.15320
C         18.33577        10.83395         2.75024
C         18.39078        12.20374         2.18140
C         19.60485        10.10707         2.99600
C         19.63044        12.83981         1.92321
C         18.44093        15.01291         1.44483
C         18.42592        16.46960         1.34585
C         19.63951        14.18849         1.40749
C         19.61995        17.29450         1.23572
C         18.36055        19.33966         1.76678
C         19.60546        18.68684         1.64585
C         20.99232         2.20836         2.56085
C         20.98174         3.64548         2.63173
C         22.20631         1.51381         2.76260
C         22.20017         4.34580         2.88246
C         20.93179         6.45708         2.92314
C         20.90028         7.89044         3.25687
C         22.18926         5.78611         2.98805
C         22.17887         8.64400         3.25322
C         20.87195        10.63815         2.36411
C         20.86083        12.13038         2.11110
C         22.10120        10.12087         3.11089
C         22.07150        12.74821         1.81931
C         20.86355        14.61043         0.83783
C         20.83871        16.84100         0.71893
C         22.10281        13.98519         1.11122
C         22.07424        17.48754         0.95983
C         20.81929        19.39115         1.83098
C         22.07187        18.77815         1.59876
C         23.41317         2.20038         2.99404
C         23.39782         3.63163         3.08200
C         24.64511         1.48048         2.98094
C         24.63190         4.36746         3.38704
C         23.40542         6.51628         3.14576
C         23.38246         7.96474         3.22936
C         24.66306         5.84088         3.21874
C         24.68484         8.68104         3.34403
C         23.38002        10.87845         2.93778
C         23.35473        12.04741         2.00998
C         24.68746        10.18326         3.16197
C         24.64303        12.78185         1.76285
C         23.36578        14.59610         0.79182
C         23.31607        16.84611         0.71153
C         24.59873        14.20325         1.33083
C         24.53058        17.31030         1.21517
C         23.32243        19.39368         1.84036
C         24.53899        18.69915         1.64141
C         25.88009         2.13230         2.97852
C         25.94578         3.57015         3.30889
C         27.07931         1.47012         2.66101
C         27.18241         4.30541         3.03100
C         25.90085         6.52554         3.20856
C         25.96524         7.95461         3.13671
C         27.17189         5.76266         3.26173
C         27.16595         8.67858         2.93428
C         25.93056        10.88004         2.75803
C         25.87158        12.19533         2.32584
C         27.18436        10.14824         2.80748
C         27.05301        13.03991         2.30913
C         25.77147        15.04636         1.40783
C         25.74653        16.50513         1.28968
C         27.01670        14.40582         1.75104
C         26.94438        17.22746         1.46119
C         25.77733        19.37272         1.69681
C         26.97724        18.67452         1.44463
C         28.29400         2.17341         2.49310
C         28.32964         3.62498         2.64694
C         29.45409         1.48371         2.11942
C         29.56104         4.32930         2.34783
C         28.45972         6.51487         2.91418
C         28.39864         7.97157         2.66838
C         29.59964         5.74149         2.39370
C         29.55552         8.61581         2.23046
C         28.36583        10.82325         2.51935
C         28.41887        12.29354         2.45111
C         29.68620        10.10329         2.45045
C         29.58598        12.98911         1.88811
C         28.25067        15.07913         1.69644
C         28.22124        16.54291         1.64068
C         29.51646        14.38672         1.64999
C         29.51136        17.31439         1.26011
C         28.15984        19.37095         1.09581
C         29.36823        18.70538         0.76808
C         30.66740         2.16024         1.83035
C         30.71593         3.60086         1.92524
C         31.79821         1.44665         1.40962
C         31.91576         4.28103         1.58690
C         30.74633         6.44233         1.93952
C         30.73344         7.87467         1.85325
C         31.92098         5.72228         1.57263
C         31.84627         8.53774         1.28071
C         30.68641        10.79305         1.55188
C         30.69114        12.16832         1.45212
C         31.56778         9.90387         0.69487
C         31.89508        12.86731         0.94563
C         30.65205        15.11624         1.09550
C         30.62357        16.47059         0.80766
C         31.89594        14.35854         0.80345
C         31.76023        17.15918         0.14853
C         30.36856        19.30550         0.01067
C         31.64225        18.64799        -0.27353
C         33.01052         2.10885         1.08677
C         33.07361         3.54110         1.19002
C         34.14041         1.38533         0.65878
C         34.31328         4.19675         0.90874
C         33.09224         6.43262         1.21498
C         33.04183         7.83964         0.98279
C         34.34298         5.67636         1.07651
C         34.15847         8.51735         0.31777
C         32.79125        10.59927         0.10798
C         32.89107        12.09549         0.14880
C         34.04951         9.86603        -0.10874
C         34.18401        12.74561        -0.22103
C         32.82735        14.90591        -0.23771
C         32.71571        16.34018        -0.64301
C         34.13087        14.23145        -0.50058
C         33.82547        16.97489        -1.37014
C         32.54895        19.10117        -1.32207
C         33.67570        18.35482        -1.74218
C         35.36732         2.02684         0.34210
C         35.43043         3.46512         0.47935
C         36.45774         1.24919        -0.10746
C         36.73723         4.20957         0.23542
C         35.54541         6.43997         0.44231
C         35.32376         7.80705        -0.04068
C         36.42532         5.58019        -0.33915
C         36.31575         8.38723        -0.89304
C         35.13282        10.52803        -0.75784
C         35.15075        11.93876        -0.96792
C         36.26915         9.78641        -1.20227
C         36.12237        12.56241        -1.77611
C         35.03232        14.79567        -1.51398
C         34.87290        16.17222        -1.89112
C         36.04877        13.98714        -2.06846
C         35.82332        16.74499        -2.79338
C         34.63230        18.90846        -2.63283
C         35.69365        18.13465        -3.15432
C         37.76929         1.81267        -0.42353
C         37.85947         3.35003        -0.43170
C         38.82413         1.07823        -1.15265
C         38.89800         3.86810        -1.34832
C         36.96903         6.15136        -1.46271
C         37.23377         7.54647        -1.56003
C         38.74493         5.02868        -2.11562
C         38.47097         8.06431        -2.18459
C         37.25220        10.38817        -2.01698
C         37.15086        11.76205        -2.37351
C         38.44473         9.61298        -2.41789
C         38.10933        12.35751        -3.26366
C         36.97448        14.55715        -2.99944
C         36.86320        15.94721        -3.34170
C         38.00086        13.75061        -3.58971
C         37.79307        16.53564        -4.25787
C         36.63483        18.70134        -4.04260
C         37.67611        17.92626        -4.59398
C         39.99313         1.69294        -1.49992
C         40.09062         3.13908        -1.59328
C         41.16171         3.84246        -2.20919
C         39.79311         5.83861        -2.57196
C         39.52592         7.25881        -2.89543
C         41.05954         5.19124        -2.56511
C         40.41528         7.95757        -3.68659
C         39.32145        10.16445        -3.46490
C         39.14334        11.56043        -3.84785
C         40.29230         9.34096        -4.00641
C         40.01680        12.16900        -4.76942
C         38.92342        14.33632        -4.51245
C         38.82960        15.75204        -4.84255
C         39.90798        13.51564        -5.09284
C         39.73156        16.37238        -5.72759
C         38.61243        18.50696        -5.49393
C         39.62173        17.73473        -6.04329
O         24.77009         9.59794         4.49243
O          6.54860        13.05774        -3.21965
O          5.68991        17.26982        -1.63483
O         27.79551        12.98249         3.56710
O         13.19756         9.49627        -0.48103
O         20.84095        15.67466        -0.06377
O         29.11546        17.14490         2.64086
O         28.10312         6.19083         4.30496
O         38.44479         2.57287         0.65794
O          4.95717         4.25643        -5.53066
O         13.74353        12.45698         3.31360
O         37.44248         5.35223        -2.49295
O         24.06586        11.82987         0.74848
O         25.32828         3.90464         4.59250
O         18.99522        10.81968         4.09367
O         32.37621        18.17521         0.94295
O          7.21708         8.55107        -3.99005
O         32.51480        13.72889         1.95822
O         22.57925        11.02249         4.14832
O         13.10724         6.89987         2.23268
O         32.35653        11.43483        -1.04470
O         23.32667        15.68735        -0.07926
O         12.48621        14.61803         3.04541
O         39.12854         9.01739        -1.27694
O         32.07468        15.25864        -1.43809
O         34.76896        13.70070         0.70405
O          9.08165         6.02155         0.39348
O         35.43040         6.22418         1.86831
O         13.18227         5.39088        -1.24918
O         20.05879         8.16187         4.45375
O         15.76036         4.69557        -0.90570
H         15.00668         5.07882        -1.42010
O         37.26544         4.54291         1.54745
H         37.70701         3.73206         1.89214
O          3.37918        15.46363         1.91062
H          3.45144        14.52404         1.63976
O          3.34458         9.15382        -5.11931
H          3.39348         8.31189        -5.64312
O         20.90151        10.00207         1.04574
H         21.58613        10.44619         0.50013
O          3.61586         6.56321        -5.80218
H          4.31781         6.11055        -6.32323
O         30.68217         9.59248        -0.43856
H         30.82895        10.30343        -1.10735
O          6.01139         3.54193        -1.19685
H          6.51666         3.04697        -0.51668
O         10.91751         1.99257         1.07999
H         10.05149         2.45446         1.10217
O         30.28115        10.22386         3.79608
H         29.62274         9.89599         4.44599
H          1.79775         1.80316        -5.16473
H          1.67985         4.26491        -5.05324
H          3.84483         0.56377        -4.53854
H          1.72448         5.81077        -3.41411
H          1.54083         8.16942        -2.78499
H          1.30817        10.06575        -2.84163
H          1.05376        12.18260        -1.68319
H          0.87132        13.98341        -0.94638
H          0.73065        15.83114         0.63192
H          1.82479        17.83091         1.79418
H          6.17694         0.52872        -3.67007
H          3.51740        19.59704         1.57152
H          8.43994         0.55208        -2.70820
H          6.07886        19.92710         1.21440
H         10.52598         0.45966        -1.44186
H          8.43442        20.20239         1.18637
H         12.89386         0.42558        -0.36165
H         10.96666        20.31831         1.35472
H         15.22571         0.44294         0.45487
H         13.39449        20.35850         1.50031
H         17.49021         0.42743         1.41145
H         15.91594        20.40677         1.61673
H         19.82496         0.41800         2.16418
H         18.32999        20.41960         1.97137
H         22.21758         0.41689         2.68373
H         20.78096        20.43383         2.17749
H         24.61340         0.39468         2.80709
H         23.35610        20.43509         2.19108
H         27.06190         0.38512         2.47999
H         25.79918        20.46139         1.84846
H         29.41726         0.38913         2.01573
H         28.09479        20.45742         0.93962
H         31.74573         0.35116         1.32611
H         30.17753        20.28654        -0.44894
H         34.07559         0.29013         0.57848
H         32.34508        20.06968        -1.80177
H         36.29657         0.17439        -0.27914
H         34.54086        19.96268        -2.93288
H         38.70761        -0.00734        -1.28856
H         36.55031        19.76395        -4.31424
H         40.82065         1.09621        -1.91268
H         42.11548         3.31935        -2.36986
H         41.95318         5.72445        -2.91964
H         41.24220         7.40748        -4.15880
H         41.00055         9.73942        -4.74560
H         40.81629        11.58298        -5.24135
H         40.62299        13.93406        -5.81314
H         40.54477        15.79641        -6.18828
H         38.52338        19.57297        -5.74702
H         40.34464        18.18661        -6.73674
