         204
 CSIRO Nanostructure Databank - Neutral Graphene Oxide Data Set
C        -11.12640         0.66997        -0.30176
C         -9.92346         1.42045        -0.50224
C         -8.70004         0.66108        -0.83826
C         -7.39996         1.40214        -1.03063
C         -6.14207         0.66689        -0.80489
C         -4.91475         1.37929        -0.74732
C         -3.69672         0.67581        -0.68228
C         -2.44447         1.35840        -0.91720
C         -1.13107         0.57447        -0.86625
C          0.06986         1.40792        -0.46133
C          1.23139         0.75682        -0.08360
C          2.49114         1.46435         0.01206
C          3.69333         0.75471         0.16803
C          4.95226         1.44585         0.14206
C          6.14635         0.75643        -0.03011
C          7.40929         1.47092        -0.15115
C          8.58799         0.77402        -0.42683
C          9.84128         1.46729        -0.50736
C         11.07302         0.69283        -0.57431
C         -9.87126         2.80386        -0.34758
C         -8.66820         3.54919        -0.41767
C         -7.39978         2.93457        -0.99053
C         -6.14249         3.50363        -0.39322
C         -4.93694         2.83518        -0.53998
C         -3.70212         3.54315        -0.33439
C         -2.44979         2.91320        -0.71603
C         -1.18664         3.59013        -0.46274
C          0.08522         2.87335        -0.85533
C          1.31525         3.60414        -0.38237
C          2.51173         2.90708        -0.12497
C          3.71439         3.62777         0.07650
C          4.96443         2.90754         0.48812
C          6.22673         3.62585         0.09005
C          7.42729         2.90491        -0.07954
C          8.66761         3.61282        -0.24106
C          9.86629         2.85766        -0.40990
C         -8.65025         4.91908        -0.12525
C         -7.44330         5.63460         0.04018
C         -6.18929         4.83467         0.30282
C         -4.91635         5.62544         0.17821
C         -3.69208         4.93110        -0.00759
C         -2.45773         5.65415         0.04065
C         -1.19531         4.95131        -0.14188
C          0.03623         5.67992        -0.15122
C          1.28245         5.01829        -0.25937
C          2.51341         5.75846        -0.11407
C          3.73771         5.03603         0.01077
C          4.98178         5.75329         0.09334
C          6.22574         5.03259         0.05550
C          7.46654         5.75077        -0.04609
C          8.66631         5.02508        -0.18330
C         -7.40531         7.02776         0.20019
C         -6.19639         7.73012         0.38830
C         -4.93622         7.02126         0.35312
C         -3.70523         7.74326         0.44198
C         -2.48963         7.04301         0.29951
C         -1.22071         7.77263         0.48469
C         -0.00208         7.14518        -0.09705
C          1.27469         7.93490        -0.09203
C          2.53397         7.17330        -0.02776
C          3.74478         7.87676         0.13148
C          4.98373         7.16228         0.12569
C          6.23704         7.87689         0.13539
C          7.43610         7.17983         0.02298
C         -6.16822         9.15386         0.53049
C         -4.98956         9.84883         0.63165
C         -3.70720         9.18759         0.60182
C         -2.52811         9.91938         0.66815
C         -1.21537         9.26735         0.70878
C          0.05673        10.00896         0.53030
C          1.25803         9.36329         0.32920
C          2.53454        10.02008         0.38599
C          3.73225         9.31957         0.26658
C          5.00858         9.99602         0.31754
C          6.19043         9.31862         0.23527
C        -11.13233        -0.70229        -0.29811
C         -9.91246        -1.47379        -0.36432
C         -8.66319        -0.77966        -0.51488
C         -7.44856        -1.45654        -0.42584
C         -6.17077        -0.74869        -0.55886
C         -4.98295        -1.43332        -0.32823
C         -3.66237        -0.83272        -0.71050
C         -2.44074        -1.41582        -0.02086
C         -1.23800        -0.72699        -0.09586
C         -0.00421        -1.35268         0.29448
C          1.20824        -0.67209         0.21826
C          2.45753        -1.38138         0.43193
C          3.69221        -0.68001         0.30989
C          4.93627        -1.36129         0.26439
C          6.13831        -0.68667        -0.03448
C          7.33484        -1.42386        -0.28352
C          8.53332        -0.67757        -0.68183
C          9.86264        -1.45530        -0.79560
C         11.09574        -0.66130        -0.62834
C         -9.92047        -2.86583        -0.28059
C         -8.70128        -3.60019        -0.24140
C         -7.45710        -2.88110        -0.22511
C         -6.25809        -3.58242         0.01814
C         -5.02510        -2.79800         0.21464
C         -3.74737        -3.52019         0.52388
C         -2.45606        -2.81721         0.36223
C         -1.28678        -3.50875         0.59978
C         -0.03205        -2.73962         0.88874
C          1.22642        -3.51947         0.62563
C          2.43466        -2.79768         0.57705
C          3.68871        -3.54826         0.71795
C          5.00195        -2.80009         0.52960
C          6.18687        -3.55852         0.11599
C          7.36182        -2.83850        -0.24116
C          8.61084        -3.57037        -0.39606
C          9.82133        -2.88666        -0.51767
C         -8.67368        -5.00826        -0.18815
C         -7.46106        -5.71465        -0.04758
C         -6.23313        -4.98723         0.14292
C         -5.00937        -5.70447         0.41410
C         -3.75013        -4.99782         0.58433
C         -2.53872        -5.65912         0.74521
C         -1.26927        -4.95300         0.74137
C         -0.04897        -5.63690         0.79619
C          1.20897        -4.93612         0.68095
C          2.43748        -5.67084         0.53684
C          3.67590        -4.99693         0.48622
C          4.90428        -5.68103         0.27104
C          6.14148        -4.96849         0.10731
C          7.36529        -5.69627        -0.15312
C          8.56449        -4.99802        -0.32351
C         -7.42546        -7.13669        -0.10961
C         -6.22876        -7.82890         0.05769
C         -5.03587        -7.10831         0.38546
C         -3.82934        -7.88098         0.72255
C         -2.52710        -7.12107         0.93203
C         -1.27014        -7.85151         0.74522
C          0.00239        -7.12369         1.07509
C          1.22695        -7.81832         0.53273
C          2.42573        -7.11139         0.41474
C          3.66022        -7.80786         0.17501
C          4.88208        -7.10562         0.10941
C          6.11610        -7.81711        -0.12479
C          7.31625        -7.12346        -0.22624
C         -6.15855        -9.26994        -0.10421
C         -4.98335        -9.95599        -0.02862
C         -3.74356        -9.29891         0.31962
C         -2.52298        -9.93156         0.28917
C         -1.27522        -9.22720         0.50574
C         -0.03251        -9.92561         0.36122
C          1.19570        -9.23911         0.33781
C          2.42434        -9.92258         0.08078
C          3.63440        -9.23917         0.02101
C          4.88314        -9.92994        -0.20183
C          6.06411        -9.25314        -0.26657
O         -6.28246         4.48884         1.75224
H         -6.22702         5.33188         2.25202
O          0.13355        -7.21991         2.54911
H         -0.03353        -8.15409         2.79765
O         -0.87931         0.14854        -2.25480
H         -0.51673         0.93436        -2.72844
O         -4.53293        -2.88646         1.62076
O          4.95855         2.93984         1.97284
H          5.76219         2.46575         2.27619
O         -3.46730        -1.18236        -2.13671
H         -2.63596        -0.73434        -2.43597
O         -0.05992        -2.53634         2.35657
H          0.80840        -2.15926         2.61574
O         -3.32736        -7.60269         2.07405
O         -1.06514         8.28353         1.84450
O         -7.37697         3.38589        -2.38329
H         -7.82483         2.67817        -2.90587
O          0.13189         2.88772        -2.34200
H         -0.80480         2.94905        -2.65270
O          4.50536        -3.14911         1.87634
O          9.07991        -1.06668        -1.98351
O         -2.49439         2.27030        -2.06587
O          0.49566         7.75968        -1.34250
O         -8.16346         0.92982        -2.20321
H         12.05376        -1.19965        -0.56652
H         12.02042         1.24774        -0.49674
H         10.82770         3.38926        -0.47390
H          9.62060         5.56743        -0.26134
H          8.38622         7.73433        -0.01078
H          7.14229         9.87000         0.25725
H          5.01041        11.09244         0.40985
H          2.56167        11.10624         0.56290
H          0.04764        11.09507         0.71199
H         -2.57459        11.01913         0.67503
H         -5.00776        10.94340         0.73903
H         -7.12519         9.69624         0.54968
H         -8.34297         7.60019         0.12243
H         -9.60696         5.44942         0.01400
H        -10.79106         3.33278        -0.04989
H        -12.06646         1.22229        -0.15429
H        -12.08096        -1.24402        -0.17126
H        -10.87709        -3.40557        -0.22008
H         -9.61712        -5.56982        -0.25845
H         -8.35369        -7.68862        -0.31945
H         -7.08855        -9.80240        -0.35237
H         -4.96219       -11.03847        -0.22417
H         -2.47241       -10.99705         0.01761
H         -0.04838       -11.01108         0.18582
H          2.40665       -11.01394        -0.05899
H          4.86247       -11.02366        -0.31775
H          7.00598        -9.79498        -0.43811
H          8.24962        -7.67723        -0.40902
H          9.49822        -5.56234        -0.46687
H         10.76933        -3.43644        -0.41663
