         262
 CSIRO Nanostructure Databank - Neutral Graphene Oxide Data Set
C        -11.09442         0.36585         0.67278
C         -9.92389         1.27068         0.83032
C         -8.57973         0.62037         1.06548
C         -7.31203         1.41834         0.83621
C         -5.97358         0.69168         0.80619
C         -4.72988         1.53015         0.42844
C         -3.66545         0.70707        -0.33755
C         -2.34969         1.41397        -0.53410
C         -1.10958         0.69496        -1.03004
C          0.06123         1.47941        -1.57127
C          1.26292         0.76989        -2.15197
C          2.55760         1.52863        -1.95385
C          3.74421         0.77079        -1.42274
C          4.87142         1.55870        -0.78652
C          6.11457         0.82847        -0.43202
C          7.51070         1.43009        -0.58932
C          8.45491         0.82382         0.47621
C          9.34068         1.64993         1.36002
C          9.97755         0.99257         2.52084
C        -10.00385         2.63992         0.36315
C         -8.81410         3.42762        -0.11665
C         -7.46199         2.79915         0.25488
C         -6.27939         3.49548        -0.35508
C         -4.98452         2.76027        -0.45466
C         -3.75188         3.55733        -0.79240
C         -2.40247         2.89473        -0.59869
C         -1.25456         3.64405        -1.19710
C         -0.03621         2.98100        -1.74317
C          1.21143         3.83262        -2.10513
C          2.55009         3.06327        -1.96222
C          3.82013         3.80111        -1.62670
C          4.96504         3.07272        -0.96816
C          6.26948         3.79934        -0.78460
C          7.64962         3.02740        -0.74478
C          8.51676         3.72562         0.30188
C          9.24248         3.11992         1.26085
C         -8.80553         4.90273         0.45044
C         -7.46986         5.66454         0.33205
C         -6.28150         5.00989        -0.28682
C         -4.96538         5.68874        -0.31178
C         -3.81843         5.04141        -0.68157
C         -2.50544         5.71618        -0.40095
C         -1.20765         5.00859        -0.59724
C          0.12558         5.69474        -0.45367
C          1.23935         5.26224        -1.38642
C          2.52933         6.01167        -1.22969
C          3.83715         5.31644        -1.52879
C          5.13691         6.04877        -1.35765
C          6.48304         5.27720        -1.25580
C          7.49032         5.95468        -0.33158
C          8.75130         5.18122        -0.03994
C         -7.36696         6.90184         0.87649
C         -6.07552         7.63303         0.98201
C         -4.87101         7.02618         0.33519
C         -3.70791         7.90808        -0.01846
C         -2.43620         7.21611        -0.40102
C         -1.10849         7.62795         0.95820
C          0.18818         6.95532         0.38106
C          1.44469         7.80488         0.33980
C          2.63398         7.26527        -0.39152
C          3.77090         8.18637        -0.75107
C          5.10665         7.51794        -0.97269
C          6.30883         8.14386        -0.32394
C          7.41654         7.24352         0.05220
C         -6.01023         9.08215         1.32120
C         -4.86986         9.79714         1.23379
C         -3.65003         9.28487         0.55067
C         -2.30418         9.87364         0.80250
C         -1.15899         9.15970         0.89042
C          0.13623         9.84243         1.30391
C          1.37826         9.26386         0.64845
C          2.47567        10.03608         0.49593
C          3.73205         9.55977        -0.14371
C          4.99880        10.13613         0.36316
C          6.15245         9.44151         0.37296
C        -10.99248        -0.97130         0.60842
C         -9.67729        -1.71318         0.54343
C         -8.50794        -0.89171         1.07481
C         -7.18861        -1.59265         1.08920
C         -5.89542        -0.81377         0.91712
C         -4.67602        -1.55350         0.36938
C         -3.71562        -0.77272        -0.48959
C         -2.54869        -1.49701        -1.14515
C         -1.27619        -0.73315        -1.49370
C         -0.05346        -1.46926        -1.99595
C          1.28357        -0.73545        -2.07615
C          2.51661        -1.42402        -1.59934
C          3.62294        -0.71255        -1.20814
C          4.87928        -1.44008        -0.85085
C          6.13615        -0.67302        -0.53898
C          7.14584        -1.28410         0.36047
C          8.17758        -0.57595         0.90794
C          9.10030        -1.21680         1.85968
C          9.98085        -0.35491         2.64257
C         -9.72668        -3.11034         1.22363
C         -8.41155        -3.86298         1.07116
C         -7.13680        -3.10227         1.07836
C         -5.84372        -3.82525         0.83879
C         -4.66415        -3.05389         0.28061
C         -3.74176        -3.76394        -0.68168
C         -2.55357        -2.99818        -1.24963
C         -1.31266        -3.75863        -1.71065
C         -0.04938        -2.99165        -2.06590
C          1.29730        -3.70810        -2.03834
C          2.56783        -2.92593        -1.73353
C          3.77953        -3.67741        -1.21960
C          4.68028        -2.85903        -0.30442
C          5.97559        -3.56779         0.02569
C          7.11352        -2.74764         0.51854
C          7.77963        -3.31157         1.75253
C          9.02050        -2.55931         2.13772
C         -8.37549        -5.23348         1.04527
C         -7.16639        -6.00237         0.93257
C         -5.81365        -5.34566         0.82600
C         -4.96587        -6.08099        -0.24080
C         -3.77085        -5.25945        -0.74519
C         -2.44271        -5.95852        -0.86116
C         -1.22791        -5.22661        -1.34532
C         -0.01505        -6.00331        -1.81654
C          1.28717        -5.20832        -1.82461
C          2.48975        -5.92439        -1.25179
C          3.77990        -5.18209        -0.99575
C          4.87837        -5.85499        -0.14199
C          5.98869        -5.03136         0.49670
C          6.28059        -5.32633         1.96610
C          7.71227        -4.85110         1.71986
C         -7.17023        -7.39568         0.89179
C         -5.99888        -8.13737         0.59432
C         -4.68217        -7.38069         0.53532
C         -3.41155        -8.20025         0.10291
C         -2.52912        -7.45500        -0.94480
C         -1.35463        -8.21126        -1.45316
C         -0.01352        -7.51563        -1.71712
C          1.18442        -8.16862        -0.99434
C          2.14131        -7.11858        -0.39594
C          3.14560        -7.64587         0.56722
C          4.55922        -7.14376         0.56311
C          5.51367        -7.66203         1.64417
C          6.02047        -6.53537         2.53674
C         -6.05537        -9.53130         0.39968
C         -4.96382       -10.24466        -0.06460
C         -3.73319        -9.60749        -0.41117
C         -2.71400       -10.29293        -1.00556
C         -1.35118        -9.72954        -1.29791
C         -0.27710       -10.16612        -0.33894
C          0.80279        -9.38347        -0.17779
C          2.23659        -9.82841        -0.16657
C          2.88228        -9.07225         1.03590
C          4.03225        -9.67948         1.79419
C          5.05333        -8.95367         2.26782
O         -4.29761        -4.45782        -1.85040
O          1.64529         6.26076        -2.36559
O         -3.06685        -2.16909        -2.32647
O         -4.31706         0.10633        -1.49282
O          9.84505         1.03030         0.10472
O         -5.09883        -5.65957         2.08019
O          0.50834         5.66206         0.95368
O         -7.27674         2.61530         1.68836
O          8.21141         3.27606        -1.98918
O         -0.03019        -6.85992        -3.00094
O         -2.58983        -8.46554         1.17942
O         -1.88341         5.01913         0.70202
O          4.53876         5.87879        -2.68062
O          5.35668         3.70639         0.30986
O          1.29495        -0.00347        -3.36082
O         -0.94599        -3.50330        -3.08344
O         -7.92054        -1.28764         2.33860
O          5.93327        -1.27494        -1.84290
O          3.70775        -3.28503        -2.59379
O         -1.57345         7.14408         2.04219
O          5.17992         1.22607         0.61269
O          3.60138         1.05519        -2.84340
O         -5.65494         0.02056         2.07403
O          7.14395        -3.35812        -0.80951
O         -1.13599         3.42740        -2.61673
O          2.54690         7.11335         1.05145
O         -4.48405         2.81071        -1.81460
O         -2.06669         2.24143         0.64015
O          5.22782        -7.12936        -0.73176
O         -4.45940        -6.95049         1.91232
O          1.49479        -4.62424        -3.13852
O         -6.57035         4.28672        -1.53675
O          2.08187        -6.72611         1.01910
O          3.57805        -5.98514        -2.19338
O         -3.92807        -2.35400         1.33241
O          3.50910         3.46298        -3.00044
O         -2.48099        -7.87435        -2.34221
O          0.01867         1.00484        -0.16290
O         -0.99418        -0.86369        -2.91258
O          3.53154         9.33657        -1.59655
O         -9.31455         1.10380         2.21566
O          2.32469        -9.11849        -1.49397
O         -1.45887        -5.43930         0.09152
O         -3.95968         9.04579        -0.90395
O         -5.07110         6.88446         1.77952
O          7.47581        -5.37152         0.34038
O         -6.21773        -3.44128         2.18542
O          6.05164         8.26741        -1.77368
O          7.92225         0.86666        -1.83781
H          8.41374         1.58466        -2.31999
O         -9.17392         4.86170         1.82472
H         -8.59622         4.21246         2.28478
O          1.05741         4.09077        -3.49519
H          1.92272         4.40053        -3.84617
O         -0.95473       -10.26858        -2.58726
H         -1.38930        -9.72774        -3.28196
O         -9.00214         3.46188        -1.54462
H         -8.23061         3.93010        -1.95234
O         -9.36004        -1.92568        -0.86341
H        -10.18038        -2.17508        -1.33888
O          0.06732        11.24832         1.10308
H          0.12553        11.43494         0.14379
O         -1.90149         7.70858        -1.56924
H         -2.38209         8.55357        -1.77254
O        -10.04062        -2.97953         2.60671
H         -9.30849        -2.47562         3.03489
O          6.79595        -2.91989         2.79717
H          7.23461        -2.98612         3.67242
O         -5.75779        -6.43470        -1.37618
H         -5.59553        -5.77375        -2.08847
O          9.52254         5.85336         0.94707
H         10.45615         5.58006         0.84939
O          1.83443        -9.05368         2.04325
H          1.49702        -8.12860         2.11165
O         -4.26013         2.08275         1.65396
H         -4.38995         1.42366         2.37306
O          7.07602         5.24806        -2.54718
H          6.36922         5.08606        -3.21274
O          3.94651        -2.75918         0.94840
H          4.56168        -2.47099         1.65913
O          6.75974        -8.06720         1.01986
H          7.01254        -7.37256         0.36397
H         10.55116        -0.82847         3.45611
H         10.55094         1.61653         3.22286
H          9.87768         3.72878         1.92531
H          9.32971         5.15936        -1.01186
H          8.22522         7.65071         0.67864
H          7.04395         9.86284         0.86160
H          4.93908        11.10497         0.88221
H          2.43552        11.09011         0.81498
H          0.23063         9.67470         2.41297
H         -2.24814        10.96816         0.93449
H         -4.84686        10.83672         1.59386
H         -6.90870         9.54044         1.76169
H         -8.25424         7.35919         1.34076
H         -9.59929         5.47923        -0.09143
H        -10.97517         2.97955        -0.02858
H        -12.08896         0.83727         0.65037
H        -11.90655        -1.57928         0.51895
H        -10.54763        -3.70873         0.74911
H         -9.32422        -5.79106         1.08847
H         -8.12572        -7.93475         0.98605
H         -6.99756       -10.05754         0.61292
H         -5.01680       -11.34242        -0.12335
H         -2.91027       -11.30146        -1.40642
H         -0.26814       -11.20458         0.02119
H          2.47329       -10.91036        -0.25402
H          3.84995       -10.68730         2.19816
H          5.77458        -9.42159         2.95556
H          6.63318        -6.84016         3.40230
H          8.54320        -5.38386         2.23606
H          9.70277        -3.00519         2.87936
