         404
 CSIRO Nanostructure Databank - Neutral Graphene Oxide Data Set
C          1.26592         3.17212        -0.02955
C          0.27674         3.64347         0.77441
C          1.25558         5.87361         0.80318
C          0.34079         4.99290         1.28974
C          1.17757         8.23646         0.42224
C         -0.01081         8.98464         0.42570
C          1.08628        10.73666        -0.85795
C         -0.07410        10.18416        -0.27040
C          1.10039        12.13841        -1.27594
C         -0.09226        12.89452        -1.37710
C          1.17888        14.96077        -1.25241
C         -0.04696        14.27323        -1.44353
C          1.19831        16.35964        -0.89893
C          0.02410        17.15882        -0.95950
C          1.02744        18.86224         0.45396
C         -0.04082        18.40570        -0.37255
C          0.99020        20.13636         1.10926
C          0.03356        21.17279         0.96829
C          1.52603        23.19457         1.54117
C          0.24099        22.48302         1.36693
C          1.48375        24.74918         1.50462
C          0.20521        25.47532         1.59346
C          1.28583        27.60695         1.03961
C          0.13376        26.81488         1.40127
C          1.19826        29.01675         0.93983
C          0.03807        29.77817         1.24174
C          1.11998        31.98050         0.92025
C          0.00535        31.16966         1.25380
C          1.15816        33.39172         1.03269
C          0.13296        34.17111         1.64700
C          1.33585        36.28391         1.22961
C          0.20557        35.54483         1.72420
C          1.43310        37.71587         1.44374
C          3.66128         3.46835        -0.33859
C          2.41952         4.01929        -0.29488
C          3.49599         6.34078        -0.51715
C          2.17401         5.52079        -0.35874
C          3.51610         7.84438        -0.55314
C          2.30190         8.67373        -0.29821
C          3.55420        10.56822        -1.31268
C          2.28383         9.98355        -0.82355
C          3.56614        12.04076        -1.64330
C          2.33480        12.81507        -1.40182
C          3.66223        14.88878        -0.99409
C          2.38951        14.22106        -1.23605
C          3.67749        16.22874        -0.49528
C          2.38174        16.89382        -0.30153
C          4.16134        19.04066         0.67923
C          2.19122        18.03526         0.50756
C          4.07032        20.48555         0.69157
C          2.98693        21.17633         1.24444
C          3.85814        23.34178         0.55393
C          2.79857        22.56715         1.08553
C          3.73407        24.77476         0.41394
C          2.61002        25.47458         0.86329
C          3.67645        27.66233         0.40149
C          2.51501        26.91642         0.72499
C          3.69580        29.07704         0.45096
C          2.38405        29.76504         0.48166
C          3.62897        31.98606         0.56100
C          2.32245        31.26667         0.42242
C          3.61907        33.41770         0.17942
C          2.29056        34.14403         0.45244
C          3.57694        36.28390         0.10741
C          2.37953        35.59427         0.62316
C          3.63932        37.82100         0.32741
C          2.51990        38.43228         1.06216
C          6.07647         3.60485         0.03612
C          4.86495         4.26102        -0.21262
C          6.00029         6.43654        -0.11186
C          4.80655         5.67786        -0.25113
C          6.02204         7.86865        -0.28336
C          4.81364         8.57994        -0.52174
C          6.06768        10.65714        -1.00358
C          4.82821         9.92015        -0.90935
C          6.09282        11.99834        -1.40199
C          4.87436        12.79509        -1.84564
C          6.10227        14.86583        -1.16171
C          4.87080        14.19393        -1.24617
C          6.13577        16.21799        -0.74963
C          4.94144        16.90214        -0.38141
C          6.16130        19.11656        -0.77332
C          5.04623        18.34069        -0.09500
C          6.25641        20.57306        -0.39046
C          5.11852        21.25049         0.10478
C          6.19898        23.37393        -0.35947
C          5.05755        22.67280         0.11713
C          6.08789        24.80283        -0.64558
C          4.80466        25.49456        -0.30977
C          6.15377        27.71080        -0.21551
C          4.85045        27.00353        -0.19292
C          6.14841        29.11096         0.07076
C          4.90542        29.77865         0.31841
C          6.15839        31.99257         0.23965
C          4.92476        31.23754         0.51671
C          6.12081        33.42634         0.18031
C          4.89216        34.15434         0.17157
C          6.08754        36.28195        -0.03721
C          4.87092        35.56062         0.05560
C          6.11269        37.73639         0.00307
C          4.95298        38.45104         0.32957
C          8.48240         3.67257         0.55118
C          7.25802         4.33755         0.24764
C          8.45877         6.48567         0.27910
C          7.23521         5.75862         0.14516
C          8.47712         7.88952         0.02725
C          7.26419         8.58240        -0.30854
C          8.56913        10.62664        -0.77808
C          7.29979         9.95677        -0.67992
C          8.62868        12.00706        -1.17351
C          7.39667        12.64339        -1.79059
C          8.66272        14.89107        -1.46576
C          7.35191        14.18394        -1.63175
C          8.70415        16.29012        -1.03468
C          7.44720        16.92153        -0.62948
C          8.72237        19.16048        -0.84718
C          7.47740        18.41866        -0.55024
C          8.68778        20.55348        -0.78954
C          7.45607        21.27609        -0.58897
C          8.63031        23.48390        -0.78086
C          7.42528        22.71401        -0.58283
C          8.64615        24.86703        -0.72883
C          7.38003        25.61063        -0.79009
C          8.61940        27.73276        -0.32799
C          7.36515        27.04649        -0.44793
C          8.60959        29.14470        -0.09425
C          7.37472        29.83790         0.05850
C          8.60402        32.00380         0.09749
C          7.36331        31.28348         0.13144
C          8.58544        33.43515         0.07163
C          7.34219        34.14625         0.05044
C          8.55479        36.27965        -0.19832
C          7.32473        35.57169        -0.05708
C          8.55980        37.70834        -0.37010
C          7.34640        38.41094        -0.20137
C         10.89523         3.59235         1.06648
C          9.65025         4.37522         0.74831
C         10.89727         6.52829         0.73906
C          9.67203         5.80182         0.59875
C         10.93006         7.90723         0.44184
C          9.72001         8.58372         0.04017
C         11.06699        10.53695        -0.66220
C          9.75198         9.92737        -0.41796
C         11.12395        11.99144        -1.08262
C          9.84700        12.71245        -1.20856
C         11.13315        14.84675        -1.30071
C          9.91049        14.12344        -1.34854
C         11.12632        16.26009        -1.35973
C          9.91204        16.99986        -1.15399
C         11.15069        19.18306        -1.24613
C          9.94409        18.45070        -1.05687
C         11.19502        20.58296        -1.11677
C          9.95519        21.28976        -0.76666
C         11.12248        23.50337        -1.37791
C          9.93526        22.78100        -0.77829
C         11.10073        24.95594        -0.94862
C          9.89976        25.60644        -0.69839
C         11.09140        27.76770        -0.42976
C          9.86331        27.03975        -0.48305
C         11.06362        29.17734        -0.22764
C          9.85367        29.86358        -0.05206
C         11.05340        32.01956         0.31626
C          9.83518        31.30845         0.10330
C         11.03691        33.45626         0.29920
C          9.80867        34.14429         0.04648
C         10.98526        36.27299        -0.43456
C          9.79288        35.57726        -0.17554
C         10.99892        37.67026        -0.73490
C          9.77761        38.37383        -0.66856
C         13.31704         3.68256         1.78169
C         12.11370         4.44316         1.28179
C         13.34786         6.55816         1.43741
C         12.10406         5.79699         1.13953
C         13.37581         8.03354         1.10646
C         12.17204         8.66408         0.50447
C         13.48966        10.73728         0.04097
C         12.24599         9.93623        -0.01339
C         13.57362        12.06832        -0.62301
C         12.37683        12.76111        -0.92009
C         13.64188        14.85694        -1.12962
C         12.39596        14.14490        -1.15214
C         13.67272        16.26529        -1.33482
C         12.40063        16.96372        -1.59016
C         13.68069        19.18358        -1.31687
C         12.40736        18.48492        -1.57258
C         13.66617        20.59972        -1.16876
C         12.41635        21.32248        -1.15777
C         13.63639        23.45358        -1.02954
C         12.42503        22.75305        -1.12418
C         13.67005        24.93431        -1.09239
C         12.34293        25.71662        -1.05779
C         13.59619        27.77463        -0.39126
C         12.35318        27.11300        -0.62699
C         13.60361        29.16616        -0.09946
C         12.34709        29.95523        -0.42367
C         13.44526        31.73373         0.87739
C         12.28215        31.26294         0.31304
C         13.41622        33.81265         0.91294
C         12.23482        34.24928         0.32131
C         13.43995        36.38511        -0.17535
C         12.26970        35.49687        -0.52163
C         13.48380        37.70547        -0.85945
C         12.23618        38.32144        -1.07752
C         15.81659         3.71041         1.67811
C         14.62366         4.41665         1.61937
C         15.86146         6.52979         1.43384
C         14.63761         5.83136         1.49150
C         15.86722         7.95099         1.13508
C         14.70247         8.63206         0.86867
C         16.04380        10.56972        -0.08289
C         14.75231        10.05428         0.47128
C         16.05800        11.94690        -0.68839
C         14.80600        12.73732        -0.71200
C         16.11951        14.84083        -0.99346
C         14.86175        14.13525        -0.95543
C         16.11224        16.23912        -1.19297
C         14.89306        16.97869        -1.31929
C         16.10314        19.17138        -1.15080
C         14.88879        18.44569        -1.30210
C         16.10192        20.57479        -1.05050
C         14.89177        21.31686        -1.05915
C         16.08922        23.50615        -0.81400
C         14.88766        22.76144        -0.95740
C         16.08506        24.90329        -0.52703
C         14.87351        25.64378        -0.62806
C         16.04546        27.70735         0.05068
C         14.83738        27.03201        -0.34153
C         16.01888        29.08864         0.35922
C         14.80451        29.81408         0.27263
C         15.91173        32.04324         0.70362
C         14.77359        31.23668         0.61541
C         15.90943        33.51785         0.65393
C         14.71675        34.29810         0.59771
C         15.97230        36.39282        -0.08374
C         14.72912        35.72843         0.24690
C         15.97101        37.63363        -0.75880
C         14.73396        38.28358        -1.11186
C         18.28941         3.64286         1.63199
C         17.06589         4.37815         1.61953
C         18.36468         6.45231         1.45157
C         17.09841         5.80198         1.52222
C         18.45369         7.91796         1.39854
C         17.15313         8.70080         1.16762
C         18.51397        10.59679         0.31894
C         17.28408         9.97640         0.45529
C         18.63258        11.92771        -0.33584
C         17.36703        12.66285        -0.81497
C         18.61313        14.80985        -0.76015
C         17.37115        14.13282        -0.84956
C         18.65778        16.23384        -0.92193
C         17.40741        16.93480        -1.29378
C         18.61242        19.10287        -0.70934
C         17.39128        18.44584        -1.25049
C         18.60801        20.60406        -0.60891
C         17.38345        21.31468        -1.06804
C         18.61750        23.48077        -0.48139
C         17.38400        22.81857        -0.95185
C         18.55188        24.84888        -0.11281
C         17.30639        25.58653        -0.17706
C         18.46458        27.61283         0.65284
C         17.28398        26.96603         0.12000
C         18.42189        28.97154         1.09553
C         17.28462        29.83120         0.63140
C         18.38472        32.20572         1.15999
C         17.23968        31.35007         0.70965
C         18.39053        33.56735         0.73461
C         17.14346        34.22224         0.48476
C         18.45719        36.28736        -0.14808
C         17.20071        35.74683         0.47121
C         18.44331        37.52435        -0.85282
C         17.22131        38.20845        -1.10864
C         19.49877         4.28318         1.50899
C         20.81685         6.38279         1.24829
C         19.55837         5.70519         1.40423
C         20.89421         7.74231         1.05431
C         19.72629         8.56048         1.04596
C         20.94370        10.71264         0.75791
C         19.73722         9.94286         0.73488
C         20.96508        12.05889         0.46403
C         19.83097        12.73317        -0.07151
C         21.05591        14.84966        -0.40932
C         19.83656        14.10398        -0.43140
C         21.07674        16.20404        -0.60441
C         19.86997        16.94178        -0.81676
C         21.05773        19.15355        -0.71569
C         19.90219        18.39639        -0.79298
C         21.05217        20.57508        -0.62485
C         19.89096        21.32488        -0.60443
C         21.02154        23.48324        -0.09730
C         19.84425        22.77334        -0.44076
C         20.96326        24.80541         0.29119
C         19.73066        25.49858         0.33728
C         20.71722        27.37288         1.61112
C         19.64840        26.84612         0.85200
C         20.59552        28.61368         2.20219
C         19.46365        29.40385         1.92644
C         20.64417        32.54682         2.06168
C         19.48426        31.76972         1.90260
C         20.73647        33.77536         1.40841
C         19.61502        34.31112         0.76205
C         20.87229        36.16254        -0.38689
C         19.66418        35.61085         0.08633
C         20.86905        37.37809        -1.08140
C         19.67829        38.05400        -1.31644
O         17.57322        22.13056        -2.25888
O         19.40739        30.59328         2.65253
O         14.04580        10.91042         1.42554
O          7.93937        14.82012        -2.81219
O          2.70438        33.70604        -0.90192
O         12.39126        17.74991        -2.84262
O          7.56695        17.64487         0.67591
O         13.81662        36.47122         1.21018
O         13.07566        25.46812        -2.33321
O          3.47409         7.05160        -1.81359
O          6.58628        25.20398        -1.95474
O         13.18140         7.56370         2.48991
O          4.30085        31.69049         1.81775
O         13.33902        32.75604         1.83498
O          3.44459        11.02582        -2.70584
O          4.38735        26.32997        -1.42821
O          3.30246        37.21614        -0.97397
O          1.73991        24.00268         2.74556
O         11.28323        10.91036        -2.07592
O          2.04473        20.44033         1.98308
O         15.98313        10.74739        -1.53704
O          3.19748        18.33890         1.43108
O          1.23827         7.16414         1.31829
O         17.57406        17.76122        -2.51957
O         18.36292        19.77082         0.57833
O         17.61189        30.67291        -0.55773
O         18.25529        11.99954        -1.75722
O         17.76730         8.63705         2.48979
O         10.17268        22.11040         0.49342
O          2.15216        30.50191        -0.79959
O          5.00352        13.02062        -3.27372
H          4.83987        12.15374        -3.70991
O         12.42070        30.26117        -1.85915
H         12.50215        29.40911        -2.33871
O          5.94358        19.08205        -2.21776
H          5.18761        19.66704        -2.43285
O         10.93008        23.50587        -2.82350
H         11.63272        24.08486        -3.20007
O          7.56070        12.34934        -3.21126
H          7.85208        13.19287        -3.63860
O         11.15468         2.63517         0.01528
H         11.17138         3.11739        -0.83695
O         13.11393         3.40109         3.18651
H         13.13992         4.25293         3.67056
O         12.47530        35.10972        -1.91700
H         11.71166        34.56005        -2.19321
O          1.35524         5.77072        -1.52959
H          1.91082         6.29558        -2.15944
O         17.23835        36.14746         1.90398
H         16.32819        36.05017         2.25956
H          1.29816         2.11602        -0.33380
H         -0.55750         2.99801         1.08139
H         -0.37385         5.31569         2.05792
H         -0.88251         8.61099         0.97766
H         -1.01721        10.74619        -0.27646
H         -1.06666        12.38881        -1.40354
H         -0.98771        14.83336        -1.52376
H         -0.85338        16.78705        -1.50441
H         -0.95184        19.01206        -0.47004
H         -0.96748        20.91010         0.59017
H         -0.65761        23.11766         1.37736
H         -0.68387        24.94072         1.95447
H         -0.83216        27.31681         1.54788
H         -0.88543        29.25347         1.52381
H         -0.93837        31.65773         1.53748
H         -0.74498        33.65959         2.06646
H         -0.61291        36.10360         2.20029
H          0.61665        38.20874         1.99179
H          3.76815         2.37332        -0.29886
H          2.60939        39.49201         1.34521
H          6.10123         2.50661         0.08002
H          5.02930        39.51771         0.58950
H          8.48772         2.57595         0.63067
H          7.35049        39.51034        -0.23724
H         10.72873         2.98569         1.99735
H          9.76524        39.45967        -0.84379
H         13.36494         2.69063         1.26592
H         12.20212        39.35787        -1.44543
H         15.79682         2.61527         1.77768
H         14.78572        39.26418        -1.60786
H         18.24687         2.54761         1.71827
H         17.24620        39.17264        -1.63705
H         20.43522         3.70758         1.49042
H         21.73491         5.77790         1.23449
H         21.87531         8.20165         0.86878
H         21.86677        10.23784         1.11780
H         21.90238        12.60999         0.61876
H         22.00611        14.32698        -0.23938
H         22.03823        16.73251        -0.56974
H         22.03987        18.66279        -0.75276
H         22.02982        21.07612        -0.60114
H         21.99231        22.97057        -0.10026
H         21.89530        25.31673         0.56463
H         21.61584        26.77279         1.80069
H         21.37503        29.00743         2.86643
H         21.47649        32.16204         2.66433
H         21.66739        34.35534         1.46983
H         21.82198        35.63314        -0.22633
H         21.81721        37.79637        -1.44719
H         19.68147        39.00442        -1.86947
