         324
 CSIRO Nanostructure Databank - Neutral Graphene Oxide Data Set
C          1.57908         2.35912         2.81106
C          1.37355         3.57678         2.22540
C          2.76512         1.61591         2.56172
C          2.35608         4.14475         1.28630
C          1.27802         6.52178         1.46521
C          1.38939         7.87948         1.40486
C          2.24906         5.61384         0.83371
C          2.40409         8.56035         0.64616
C          1.33137        10.79699         0.87530
C          1.36372        12.20081         0.86453
C          2.40543         9.97220         0.47518
C          2.50234        12.93090         0.50124
C          1.51049        15.19298         0.83722
C          1.55135        16.57748         0.69168
C          2.60469        14.37466         0.48474
C          2.70027        17.22929         0.20185
C          2.75047        18.65768         0.04920
C          3.82350         2.16902         1.84154
C          3.70574         3.51772         1.27529
C          5.01280         1.42358         1.60242
C          4.83502         4.17401         0.85421
C          3.45747         6.24962         0.20322
C          3.43802         7.74339         0.00824
C          4.79294         5.50862         0.21399
C          4.80958         8.44228        -0.31833
C          3.59587        10.63739        -0.11294
C          3.63687        12.16067        -0.02962
C          4.87478         9.89147        -0.18737
C          4.96267        12.83812        -0.03176
C          3.80734        15.02769         0.00572
C          3.84879        16.44999        -0.13425
C          4.97726        14.29103        -0.30199
C          5.04933        17.09799        -0.56088
C          3.88692        19.28650        -0.37695
C          5.08621        18.54688        -0.67435
C          6.18105         2.05954         1.16443
C          6.17654         3.57065         1.20378
C          7.37291         1.36807         0.90954
C          7.35102         4.19881         0.50573
C          6.05801         6.28614         0.07885
C          6.05676         7.66006        -0.20142
C          7.30049         5.58401         0.19062
C          7.30033         8.37945        -0.34735
C          6.10881        10.53689        -0.34363
C          6.17618        12.02575        -0.28624
C          7.30536         9.80511        -0.49044
C          7.25764        12.68401        -1.07263
C          6.17010        14.92893        -0.71507
C          6.20468        16.34373        -0.83467
C          7.31517        14.15315        -1.15207
C          7.49560        17.01796        -1.10978
C          6.25216        19.19590        -1.05367
C          7.48056        18.49500        -1.30509
C          8.58652         2.04113         0.58331
C          8.55631         3.48662         0.40916
C          9.78557         1.34409         0.39400
C          9.78585         4.18373         0.17571
C          8.53091         6.27826        -0.04784
C          8.52118         7.66583        -0.33042
C          9.76638         5.57851         0.03326
C          9.77200         8.30765        -0.80498
C          8.61764        10.56557        -0.52806
C          8.51943        11.87943        -1.26632
C          9.79138         9.78724        -1.08162
C          9.73575        12.58449        -1.69353
C          8.43536        14.72346        -1.74404
C          8.67978        16.19860        -1.59865
C          9.49200        13.84644        -2.19805
C          9.90203        16.95830        -2.13345
C          8.63165        19.15918        -1.63850
C          9.88741        18.45783        -1.97663
C         11.02591         2.01332         0.15186
C         11.03263         3.45116         0.13247
C         12.23076         1.30975        -0.05343
C         12.25688         4.14340         0.03098
C         11.02712         6.37689         0.21814
C         11.06399         7.68436        -0.53300
C         12.27844         5.58010         0.02151
C         12.24726         8.37875        -0.69252
C         11.09437        10.49067        -1.22859
C         11.06692        11.89775        -1.74294
C         12.26962         9.78330        -1.10410
C         12.41787        12.67249        -1.79784
C         11.39523        14.95746        -2.24600
C         11.24933        16.31944        -1.96246
C         12.46244        14.16659        -1.78419
C         12.39632        17.02503        -1.55580
C         11.15159        19.15015        -1.70088
C         12.35691        18.47687        -1.47188
C         13.47147         1.98444        -0.22541
C         13.48286         3.42167        -0.12309
C         14.68974         1.31142        -0.48303
C         14.70924         4.12051        -0.15574
C         13.46438         6.28130        -0.03678
C         13.49249         7.71394        -0.30911
C         14.71384         5.55720         0.00317
C         14.68738         8.38851        -0.25823
C         13.58712        10.47530        -1.25505
C         13.63636        11.96219        -1.30820
C         14.83440         9.76636        -0.75831
C         14.82121        12.62966        -1.05955
C         13.60455        14.87127        -1.36755
C         13.60869        16.30159        -1.32776
C         14.86781        14.11026        -1.25456
C         14.80170        17.03576        -0.99970
C         13.55830        19.16692        -1.17536
C         14.77331        18.47625        -0.93566
C         15.92338         2.00682        -0.57878
C         15.93637         3.43001        -0.34285
C         17.14783         1.36542        -0.89920
C         17.16727         4.14173        -0.33840
C         15.88981         6.24785         0.18897
C         15.85273         7.71261         0.35223
C         17.17079         5.59372        -0.07834
C         17.11220         8.46656         0.66096
C         16.06982        10.52567        -0.41749
C         16.06651        11.95666        -0.68617
C         17.17196         9.86073         0.12152
C         17.23474        12.71388        -0.45048
C         16.10137        14.89205        -0.91165
C         16.01407        16.35800        -0.69547
C         17.28080        14.14681        -0.43459
C         17.14120        17.06599        -0.27503
C         15.96396        19.18249        -0.65038
C         17.16782        18.51021        -0.29783
C         18.37163         2.07312        -0.92642
C         18.37616         3.47822        -0.59369
C         19.61022         1.45108        -1.23360
C         19.62725         4.16193        -0.39835
C         18.46195         6.29430         0.30734
C         18.38806         7.63469         1.08259
C         19.65351         5.40404         0.29673
C         19.67878         8.45174         0.94673
C         18.48150        10.52724         0.11888
C         18.49280        12.00927        -0.16444
C         19.59828         9.95675         0.98510
C         19.66778        12.79192         0.31299
C         18.43258        14.87819        -0.11788
C         18.34029        16.32765         0.15638
C         19.69106        14.24912         0.09648
C         19.58207        17.07847         0.56682
C         18.35461        19.21460        -0.03587
C         19.55646        18.60797         0.64366
C         20.83892         2.14629        -1.14428
C         20.85852         3.50771        -0.65594
C         22.06977         1.52903        -1.45282
C         22.09458         4.19839        -0.47079
C         20.89218         5.80834         0.80287
C         20.86199         7.93013         1.34181
C         22.12585         5.44814         0.21958
C         22.22840         8.52656         1.29282
C         20.94190        10.59904         0.69610
C         20.93437        12.07609         0.59997
C         22.14443         9.93493         0.75842
C         22.21611        12.71308         0.10921
C         20.87887        14.95554         0.28814
C         20.88094        16.37202         0.44275
C         22.22813        14.27865         0.06047
C         22.08167        17.09572         0.53542
C         20.87811        19.23975         0.29336
C         22.07749        18.54924         0.45393
C         23.30068         2.22069        -1.33492
C         23.32598         3.59271        -0.86428
C         24.51455         1.57303        -1.60248
C         24.52777         4.31031        -0.72748
C         23.32212         6.28782         0.27025
C         23.35685         7.67801         0.64763
C         24.52799         5.67364        -0.21996
C         24.57803         8.40333         0.58144
C         23.41139        10.61976         0.68547
C         23.43653        12.05405         0.71406
C         24.61364         9.86182         0.75236
C         24.60338        12.74619         0.93502
C         23.27313        14.93747         0.94492
C         23.32244        16.41427         0.78749
C         24.56143        14.17754         1.25442
C         24.49654        17.10362         1.01835
C         23.33248        19.22259         0.52632
C         24.53185        18.54480         0.83771
C         25.74875         2.27321        -1.55745
C         25.75555         3.68485        -1.18211
C         26.94937         1.57720        -1.73307
C         26.96033         4.37545        -1.11636
C         25.75958         6.37887        -0.12298
C         25.80386         7.73265         0.27568
C         27.02167         5.65208        -0.37899
C         27.06809         8.46288         0.29842
C         25.84683        10.55842         0.76975
C         25.91754        12.07286         0.70956
C         27.07655         9.87870         0.62670
C         27.03428        12.67104         1.56152
C         25.78810        14.92939         1.46968
C         25.70619        16.39265         1.50215
C         27.01348        14.18337         1.81580
C         27.00404        17.17417         1.57774
C         25.76385        19.23187         0.87539
C         27.01419        18.56367         1.03693
C         28.18478         2.28383        -1.99811
C         28.16941         3.83239        -1.72551
C         29.48387         1.59091        -1.88274
C         29.48608         4.53063        -1.57648
C         28.32424         6.41677        -0.33777
C         28.25898         7.85769        -0.07560
C         29.55964         5.83362        -0.91742
C         29.49916         8.64228        -0.18318
C         28.30741        10.58050         0.79539
C         28.33171        11.91673         1.44703
C         29.53407         9.96919         0.45763
C         29.64490        12.68657         1.48666
C         28.33039        14.93114         1.94331
C         28.31344        16.43841         1.72382
C         29.64166        14.19177         1.68496
C         29.56209        17.13547         1.29466
C         28.19849        19.18358         0.69924
C         29.47334        18.42037         0.49032
C         30.66170         2.22316        -1.70266
C         30.79618         3.69321        -1.64524
C         31.98068         4.31222        -1.05432
C         30.78970         6.43690        -0.71627
C         30.83153         7.89853        -0.42069
C         31.99462         5.64760        -0.76994
C         32.02399         8.56077         0.10269
C         30.78142        10.63408         0.57463
C         30.82524        12.04524         0.86580
C         31.99907         9.88183         0.44703
C         31.92726        12.81886         0.54003
C         30.83291        14.93513         1.17259
C         30.83776        16.38236         1.11292
C         31.91560        14.22674         0.67671
C         31.97336        17.13881         0.93200
C         30.73522        19.22871         0.66910
C         31.91090        18.57970         0.84301
O         29.19512        14.55442         3.03294
O          9.54493         8.86044        -2.16495
O          7.48776        11.93327        -2.30662
O         26.71872        13.16042         2.86591
O          3.92851         5.55097        -0.97196
O         14.50812         9.84246        -2.20002
O         18.88760        11.02401        -1.18722
O         22.37488        12.21057        -1.20773
O          9.76463        17.75804        -3.33016
O         18.69502        16.53263         1.60304
O         11.82496        12.05971        -2.97921
O         29.14331        17.18467         2.68159
O         20.89296         6.65238         1.90557
O         20.13470        12.60666         1.73101
O         15.80251        14.52734        -2.31834
O         27.88584         5.59045         0.82828
O          8.54409        16.56239        -0.17355
O         10.42324        14.40512        -3.06855
O          5.91450        12.51338         1.07483
O          3.81427         8.08427        -1.33965
O         28.01558         3.28192        -3.05479
O          1.71412         4.53109         0.02124
O         30.15366         8.64055        -1.49608
O          3.33803        11.47711        -1.29401
O         23.46822        14.47057         2.27395
O         30.28268         4.43650        -2.78689
O         16.09196         8.28491         1.70577
O         29.15604        11.94813         2.64535
O         26.19776        17.01394         2.76929
O         17.96163         6.40254        -1.05461
O         29.44265        17.97275        -0.91365
H         29.50593        18.76828        -1.48321
O         19.21961        10.22802         2.37075
H         19.47753        11.16809         2.56016
O         19.35126        18.96882         2.05676
H         18.87497        18.20576         2.46566
O         11.01094         6.76501         1.64888
H         11.11723         5.94484         2.17629
O         22.64398         8.67347         2.68779
H         22.40227         7.84015         3.14769
O          8.98429        10.87475         0.85101
H          8.21051        11.28504         1.29519
O         18.23678         7.27263         2.45946
H         18.21597         8.10218         2.98378
O         26.33905        12.40099        -0.66509
H         25.61375        12.12860        -1.26960
O         22.59704        14.65393        -1.28289
H         22.56484        13.77971        -1.78519
O          6.37847         3.92024         2.62920
H          7.20045         3.47277         2.92380
H          0.80055         1.92210         3.45212
H          0.40756         4.08579         2.34605
H          2.86523         0.60362         2.97784
H          0.41655         6.08199         1.98585
H          0.62588         8.48488         1.91291
H          0.40060        10.32196         1.21500
H          0.46048        12.73013         1.19974
H          0.58804        14.73125         1.21542
H          0.66984        17.17653         0.96231
H          1.85120        19.24297         0.29072
H          5.01612         0.34095         1.80086
H          3.90913        20.38106        -0.48125
H          7.38051         0.26982         0.98612
H          6.25254        20.29211        -1.15011
H          9.78186         0.24572         0.46392
H          8.62700        20.25855        -1.69906
H         12.21154         0.20973        -0.07542
H         11.11831        20.24186        -1.56233
H         14.68144         0.21871        -0.61267
H         13.54987        20.26586        -1.13156
H         17.14732         0.28734        -1.11973
H         15.94946        20.28215        -0.65971
H         19.61809         0.39265        -1.53503
H         18.32493        20.31419        -0.09046
H         22.07973         0.48408        -1.79737
H         20.90101        20.33602         0.19490
H         24.51241         0.51281        -1.89476
H         23.35635        20.31574         0.40463
H         26.94798         0.47713        -1.71798
H         25.77743        20.30180         0.61889
H         29.45453         0.49048        -1.85889
H         28.16173        20.21914         0.32394
H         31.57527         1.62931        -1.54527
H         32.87370         3.69518        -0.87680
H         32.93234         6.10677        -0.42674
H         32.95569         7.98943         0.21660
H         32.93600        10.36097         0.76505
H         32.80989        12.34913         0.08522
H         32.79052        14.77698         0.30469
H         32.96552        16.66718         0.90146
H         30.69612        20.32446         0.57895
H         32.85332        19.14321         0.90383
