         276
 CSIRO Nanostructure Databank - Neutral Graphene Oxide Data Set
C        -10.64568         0.47297        -1.56271
C         -9.84365         1.44061        -0.76157
C         -8.85693         0.77930         0.22065
C         -7.53974         1.47093         0.43119
C         -6.26071         0.69504         0.30707
C         -4.97849         1.42303        -0.02166
C         -3.73071         0.64528         0.19876
C         -2.47495         1.35679         0.57610
C         -1.18224         0.65523         0.31603
C          0.01575         1.47237        -0.02279
C          1.00420         0.82182        -1.01530
C          2.39189         1.52392        -0.94732
C          3.68754         0.76741        -1.12558
C          5.00913         1.40123        -0.78624
C          6.13440         0.61025        -0.73053
C          7.48521         1.09923        -0.88773
C          8.60897         0.60732        -0.30138
C          9.76777         1.51204         0.08506
C         11.05779         0.73749        -0.01000
C         -9.50156         2.76726        -1.26136
C         -8.65069         3.68126        -0.52082
C         -7.52203         2.96892         0.30607
C         -6.19679         3.66498         0.38293
C         -4.96585         2.94734        -0.16943
C         -3.66658         3.63322         0.23624
C         -2.57120         2.83053         0.91154
C         -1.16589         3.49944         0.86574
C          0.01054         2.82230         0.21848
C          1.10099         3.65210        -0.57422
C          2.43576         2.88811        -0.22645
C          3.74134         3.62297        -0.54290
C          5.03788         2.84578        -0.25846
C          6.28234         3.70312        -0.48482
C          7.47786         3.30307        -0.97905
C          8.77572         3.87376        -0.57269
C          9.84951         2.97463        -0.36077
C         -8.41522         5.09404        -0.91597
C         -7.34149         5.82367        -0.46558
C         -6.15107         5.13184         0.10894
C         -4.81338         5.76972        -0.27408
C         -3.61830         4.98947         0.24955
C         -2.29231         5.74180         0.28682
C         -1.11857         4.99185         0.92400
C          0.26518         5.65956         0.87502
C          1.12095         5.24236        -0.33380
C          2.51377         5.86852        -0.11458
C          3.77078         5.11214        -0.37168
C          4.99857         5.73932         0.24785
C          6.35090         5.03235         0.23883
C          7.42944         5.93262        -0.51267
C          8.77392         5.25450        -0.33446
C         -7.20765         7.25755        -0.65258
C         -6.07687         7.94765        -0.26961
C         -4.88494         7.20019         0.22173
C         -3.64253         7.92905         0.62265
C         -2.34004         7.21543         0.65738
C         -1.18465         7.90201         0.84715
C          0.12453         7.19979         0.94465
C          1.36324         7.95406         0.61395
C          2.56436         7.18640         0.19618
C          3.82826         8.05251         0.06425
C          4.99603         7.17291         0.61136
C          6.38465         7.92230         0.87607
C          7.29901         7.39432        -0.15861
C         -5.98135         9.38880        -0.29337
C         -4.84812        10.06108         0.06497
C         -3.61541         9.40442         0.46739
C         -2.45079        10.08296         0.63988
C         -1.13824         9.42420         0.98791
C         -0.02125        10.01223         0.05738
C          1.33387         9.42362         0.37707
C          2.48299        10.10275         0.58156
C          3.72872         9.32809         0.97746
C          5.03742        10.06954         0.84630
C          6.21465         9.42805         0.80614
C        -10.78851        -0.83078        -1.24993
C        -10.21536        -1.42207         0.02774
C         -8.88200        -0.71956         0.31336
C         -7.59752        -1.47939         0.21176
C         -6.26584        -0.80225        -0.04283
C         -5.07939        -1.54057         0.63836
C         -3.77847        -0.80973         0.57944
C         -2.55142        -1.53690         0.10461
C         -1.29669        -0.76446        -0.17300
C          0.01028        -1.52825        -0.19802
C          1.09019        -0.73076        -0.94449
C          2.36395        -1.48313        -1.20324
C          3.68581        -0.74057        -1.51808
C          4.81709        -1.50869        -0.86400
C          6.05882        -0.82892        -0.42400
C          7.37157        -1.54422        -0.32580
C          8.56021        -0.79989         0.28246
C          9.93688        -1.49475         0.22777
C         11.09735        -0.60582         0.14658
C        -10.07634        -2.94784         0.11581
C         -8.90581        -3.63179         0.08788
C         -7.69134        -2.89068        -0.31231
C         -6.09211        -3.73573         1.46689
C         -5.02222        -3.03104         0.77938
C         -3.81402        -3.80716         0.29089
C         -2.50111        -3.01684         0.22614
C         -1.31521        -3.66331         0.03512
C         -0.21458        -2.94144        -0.78625
C          1.10479        -3.70039        -0.89866
C          2.40230        -2.95112        -0.84522
C          3.55977        -3.66211        -0.82444
C          4.84658        -2.98427        -1.06525
C          6.14967        -3.66330        -0.83778
C          7.36525        -2.82892        -0.73693
C          9.12980        -3.86328         0.19497
C         10.15829        -2.83403         0.44470
C         -8.74831        -5.06253         0.62846
C         -7.36748        -5.75656         0.55119
C         -6.17921        -5.15064         1.06126
C         -4.91699        -5.90350         1.13349
C         -3.65545        -5.04247         1.17813
C         -2.37572        -5.85358         0.91264
C         -1.30179        -5.15211         0.13309
C         -0.14629        -5.93481        -0.40091
C          1.11795        -5.18392        -0.72500
C          2.37872        -5.81744        -0.17503
C          3.63087        -5.17273        -0.83814
C          4.85552        -5.67613        -0.07217
C          6.13678        -4.91967         0.00828
C          7.33423        -5.69502         0.68590
C          8.68123        -4.95421         0.86216
C         -7.31917        -7.08833         0.15471
C         -6.22300        -8.06396         0.54748
C         -4.89745        -7.37290         0.88287
C         -3.61143        -8.00474         0.35274
C         -2.34386        -7.35906         0.88054
C         -1.01911        -8.15380         0.67861
C         -0.01892        -7.43892        -0.25563
C          1.27123        -8.17576        -0.48433
C          2.46739        -7.29771        -0.48063
C          3.72248        -7.80036        -0.54223
C          4.85706        -7.17430         0.23887
C          6.20512        -7.87710         0.11106
C          7.35842        -7.14364         0.18805
C         -6.00550        -9.25750        -0.35689
C         -4.87407        -9.97873        -0.31989
C         -3.67431        -9.54196         0.50181
C         -2.36628       -10.20431         0.10208
C         -1.15455        -9.59698         0.19522
C          0.14220       -10.27438         0.14325
C          1.34209        -9.61006        -0.00367
C          2.59638       -10.27171         0.38583
C          3.84875        -9.92641        -0.05614
C          5.20069       -10.22404         0.39860
C          6.24145        -9.33897         0.27604
O         -1.72739         0.71583         1.67663
O          1.14733        -4.63686        -2.06582
O         -1.15260         4.24475         2.15758
O         -1.28541        -5.66686        -1.27558
O          4.08957         8.36492        -1.22000
O          0.24324        -8.02587        -1.54330
O         -8.22712        -1.23004         1.49513
O         -7.00046        -3.20791         2.14940
O          1.37431        -1.27969        -2.25628
O          3.85243         4.49637        -1.69091
O          0.97229         7.72257         2.04443
O          3.06788         1.55580        -2.21943
O          4.67021         6.23202         1.61457
O          7.61156         2.17815        -1.77128
O         -2.22727        -1.00691        -1.24799
O          3.90104        -9.03542        -1.15014
O         -4.21624         0.87353        -1.16610
O          5.57679        -3.61949        -2.18021
O          5.09729        -4.78282         1.05041
O         -2.18514        -6.63976         2.13188
O          8.50116        -3.57351        -1.03408
O         -8.62961         3.56935         0.95771
O         -6.10788         4.61487         1.47017
O          0.81536         3.52808        -1.92650
O         -6.77856         1.03108         1.61225
O         -4.44430        -0.98773         1.85573
O         -4.59373         7.40991         1.62920
O         -0.37780        -8.24019         1.90739
O          5.00087        -1.17248         0.54930
O         -6.82321        -3.37761        -1.03087
O         -4.88883        -6.90201         2.25269
O        -10.04102         1.40802         0.70677
O          6.76328         4.79843         1.59058
H          6.65200         5.65272         2.08885
O          0.44008        -1.71702         1.16755
H          0.23246        -0.91815         1.69755
O          4.48458        -7.30761         1.64598
H          5.20707        -6.84384         2.14420
O         -3.57409        -7.74077        -1.07594
H         -2.96327        -6.99203        -1.27707
O          3.90769        -0.82329        -2.92777
H          3.13660        -0.39496        -3.36400
O         -4.06695        -4.29925        -1.04955
H         -4.35692        -3.55453        -1.61846
O         -0.76019        -2.83436        -2.09917
H         -0.50206        -3.64885        -2.58864
O         -0.38322         9.67803        -1.28520
H          0.40140         9.77727        -1.86243
O         -5.13200         3.16690        -1.61631
H         -4.52854         2.52995        -2.07085
O         -1.94130         5.73453        -1.13422
H         -2.71625         6.07835        -1.64034
O         -4.69444         5.85125        -1.71690
H         -4.79900         4.92866        -2.06364
O         -3.05536         2.82996         2.27764
H         -2.44762         2.27119         2.81136
O          8.27263        -0.71719         1.70622
H          8.84592         0.00233         2.06649
O          0.43866         1.04255        -2.31201
H          0.55404         2.01429        -2.51811
O         -6.79831        -8.57564         1.78172
H         -6.41317        -8.03751         2.51534
O          9.56447         1.71592         1.55316
H          8.75943         2.26792         1.66772
O          6.76409         7.52484         2.20280
H          6.08283         7.86942         2.82113
O         -6.08904        -0.91630        -1.46706
H         -5.22730        -0.49872        -1.71926
O         -3.54323        -4.52201         2.51230
H         -3.34132        -5.28585         3.10019
O          2.40095         2.66109         1.19314
H          3.32654         2.50993         1.51614
O          3.72121        -5.62255        -2.19541
H          2.93280        -5.27691        -2.67679
O        -11.12468        -1.06990         1.08985
H        -10.63971        -1.15757         1.93845
O          6.93074        -5.89634         2.07776
H          6.73383        -5.01549         2.46522
O          1.05128         5.24501         1.99567
H          0.44260         4.90311         2.69153
O          7.06242         5.84848        -1.90982
H          7.82969         6.09908        -2.46413
O         -0.81264         9.77175         2.34738
H         -0.10173         9.14990         2.64065
O         -3.91766        -9.86300         1.88749
H         -3.14350        -9.56462         2.41121
O          2.34249        -5.56223         1.23768
H          3.04765        -6.10965         1.66949
O          0.60852         5.88728        -1.49269
H          0.61863         5.19806        -2.21177
O         -9.06755        -4.99339         2.01948
H         -8.43503        -4.33277         2.41523
O          5.06453         2.61350         1.20182
H          5.56932         3.34807         1.63530
O          3.63326         8.90026         2.35270
H          2.77389         8.43741         2.48638
H         12.08217        -1.10160         0.13295
H         11.99982         1.29754        -0.11287
H         10.80835         3.44173        -0.07247
H          9.63636         5.77525         0.10634
H          7.36241         8.04446        -1.05069
H          7.14506        10.01147         0.72475
H          5.01852        11.16958         0.78765
H          2.52571        11.19957         0.48197
H          0.00980        11.13282         0.18500
H         -2.44011        11.17781         0.51608
H         -4.84050        11.16078         0.02094
H         -6.86857         9.95719        -0.61046
H         -8.07617         7.81143        -1.04061
H         -9.22637         5.60424        -1.45760
H         -9.78323         3.03446        -2.29065
H        -11.10577         0.86155        -2.48458
H        -11.39623        -1.47397        -1.90368
H        -10.99691        -3.47266         0.42076
H         -9.50102        -5.73261         0.13657
H         -8.25278        -7.55260        -0.20690
H         -6.85511        -9.59146        -0.97250
H         -4.78109       -10.88276        -0.94171
H         -2.41245       -11.26978        -0.17856
H          0.15599       -11.35295         0.36871
H          2.50921       -11.04909         1.16107
H          5.42105       -11.22831         0.79565
H          7.24050        -9.72828         0.53700
H          8.32763        -7.66805         0.18887
H          9.18105        -5.21469         1.80828
H         11.19548        -3.16606         0.62939
