         334
 CSIRO Nanostructure Databank - Neutral Graphene Oxide Data Set
C         30.25405        56.99505        -0.31732
C         29.87552        58.25775         0.07742
C         28.91457        59.16469        -0.48610
C         30.28245        61.27032        -0.15477
C         29.08825        60.53174        -0.45248
C         32.81655        52.86372         0.13939
C         32.79774        54.27928         0.14102
C         31.58787        54.98975        -0.00529
C         32.74581        57.14196         0.26281
C         31.51976        56.39105         0.05584
C         32.77645        58.58343         0.25078
C         31.67249        59.37658         0.52604
C         32.77564        61.61915         0.07330
C         31.52712        60.75443         0.16073
C         35.22902        48.57363         0.07553
C         35.21129        49.96507         0.20241
C         34.02157        50.72124         0.14647
C         35.27445        52.87430         0.26454
C         34.01718        52.13749         0.21548
C         35.26372        54.30839         0.25929
C         34.02837        55.02187         0.23510
C         35.24989        57.17823         0.35791
C         33.99462        56.44276         0.26708
C         35.26448        58.57009         0.24119
C         34.02942        59.29483        -0.09455
C         35.33550        61.49798         0.08608
C         34.05060        60.80522        -0.13626
C         37.77878        44.23050         0.55215
C         37.76433        45.73112         0.71394
C         36.46540        46.43631         0.35688
C         37.72041        48.52725         0.06210
C         36.44567        47.79779         0.13135
C         37.66265        50.01631        -0.19475
C         36.50536        50.68439         0.53410
C         37.72487        52.88164         0.15487
C         36.48880        52.17755         0.26933
C         37.72775        54.31447         0.18361
C         36.49944        55.02270         0.28576
C         37.73943        57.13754         0.37243
C         36.50344        56.45271         0.38754
C         37.78820        58.58170         0.61509
C         36.46272        59.34829         0.53450
C         37.78835        61.46050         0.36623
C         36.51210        60.81098         0.29550
C         40.21994        39.96045         0.50950
C         40.19290        41.37867         0.58904
C         38.99521        42.09252         0.49159
C         40.28149        44.20640         0.15755
C         38.95143        43.52797         0.44821
C         40.25450        45.70680         0.32721
C         38.94424        46.36141        -0.03695
C         40.15904        48.60779         0.32782
C         38.90501        47.86291         0.10605
C         40.15152        50.05385         0.04446
C         38.96876        50.74392         0.01596
C         40.20206        52.89827        -0.00974
C         38.96227        52.18359         0.03369
C         40.19844        54.32866        -0.00108
C         38.96418        55.02756         0.10142
C         40.20150        57.17353         0.06864
C         38.96686        56.45215         0.16853
C         40.21204        58.61417         0.13242
C         39.02823        59.32219         0.36071
C         40.26318        61.45060         0.27680
C         39.00173        60.76095         0.36213
C         42.67453        35.74837         0.01415
C         42.66419        37.13310         0.24772
C         41.43899        37.85139         0.35891
C         42.67955        39.90384         1.08120
C         41.41163        39.22736         0.60856
C         42.63970        41.40955         0.91369
C         41.46574        42.08225         0.76892
C         42.72654        44.29001         0.82172
C         41.39795        43.57589         0.98934
C         42.69262        45.71679         0.73523
C         41.42859        46.38973         0.53536
C         42.73165        48.57540         0.42699
C         41.43486        47.87505         0.57060
C         42.73064        50.00279         0.04196
C         41.43261        50.74745        -0.12853
C         42.67667        52.90453        -0.10215
C         41.43976        52.21212        -0.07702
C         42.66434        54.33152        -0.15338
C         41.42938        55.04123        -0.10102
C         42.65650        57.19372        -0.25582
C         41.41910        56.47353        -0.10065
C         42.63730        58.63356        -0.28945
C         41.45384        59.32772        -0.04742
C         42.72252        61.48266         0.00390
C         41.45018        60.77440         0.07993
C         45.11490        32.98327        -0.69161
C         43.90445        33.64784        -0.43937
C         45.12261        35.77268        -0.20489
C         43.88355        35.04086        -0.19389
C         45.11308        37.15944        -0.03005
C         43.91366        37.86365         0.24825
C         45.15913        39.97247         0.53543
C         43.94131        39.25953         0.53752
C         45.21301        41.39499         0.94048
C         43.90629        42.14931         1.13975
C         45.23240        44.33805         1.19948
C         43.91897        43.60853         0.97917
C         45.14854        45.79435         0.80788
C         43.91730        46.45962         0.78307
C         45.17481        48.68087         0.91246
C         43.90190        47.91123         0.63779
C         45.17605        50.10594         0.38467
C         43.97397        50.78615         0.18065
C         45.15473        52.93678         0.00724
C         43.92983        52.19960        -0.01757
C         45.13077        54.35173        -0.07200
C         43.90150        55.05354        -0.18962
C         45.15489        57.21377        -0.25999
C         43.86728        56.47840        -0.30497
C         45.15572        58.69486        -0.32005
C         43.87273        59.39644        -0.70740
C         45.15626        61.61677        -0.61128
C         43.88097        60.85339        -0.31220
C         46.32620        33.65822        -0.67790
C         47.59105        35.72591        -0.24430
C         46.38371        35.06325        -0.39936
C         47.61060        37.15263         0.24189
C         46.39402        37.90841        -0.28871
C         47.60243        40.02825         0.20622
C         46.38314        39.33736         0.19111
C         47.61189        41.44648         0.36711
C         46.44638        42.15290         0.64516
C         47.53733        44.29206         0.15164
C         46.44346        43.60890         0.62814
C         47.51567        45.75745        -0.00497
C         46.36015        46.52535         0.53392
C         47.70698        48.63806         0.58997
C         46.39781        47.90019         0.52706
C         47.65154        50.09354         0.20692
C         46.41468        50.80610         0.23129
C         47.64530        52.92741        -0.07013
C         46.40119        52.22029         0.06258
C         47.65546        54.33367        -0.15586
C         46.41342        55.13543         0.10971
C         47.69761        57.21704        -0.84457
C         46.35174        56.41493        -0.75023
C         47.64287        58.68066        -0.44918
C         46.44636        59.40950        -0.49582
C         47.65588        61.50217        -0.32056
C         46.44657        60.83245        -0.43074
C         48.86551        37.92438        -0.07159
C         50.07031        40.05356        -0.20816
C         48.86012        39.30449        -0.03411
C         50.11548        41.44487        -0.10443
C         48.90683        42.22011         0.36856
C         50.04949        44.31587        -0.33588
C         48.75177        43.53858        -0.38918
C         50.04545        45.75997        -0.77536
C         48.76708        46.50594        -0.39512
C         50.08699        48.61238        -0.11878
C         48.87061        47.92825        -0.04092
C         50.10180        50.03115        -0.00649
C         48.87461        50.75990        -0.00471
C         50.08791        52.89933        -0.32385
C         48.88135        52.20439        -0.16030
C         50.10322        54.31683        -0.24054
C         48.87130        55.04339        -0.22898
C         50.08325        57.16758        -0.06654
C         48.89157        56.47902        -0.26797
C         50.10447        58.63304        -0.07345
C         48.87785        59.36063        -0.27202
C         50.11200        61.47205        -0.00992
C         48.88614        60.79137        -0.19367
C         51.28767        42.18961        -0.30221
C         52.50837        44.35396        -0.44295
C         51.26419        43.62380        -0.33652
C         52.54728        45.73813        -0.44889
C         51.31671        46.49643        -0.41385
C         52.59591        48.60399        -0.33537
C         51.33626        47.86954        -0.28053
C         52.61237        49.98266        -0.31413
C         51.39937        50.78450         0.08455
C         52.61541        52.87305        -0.42375
C         51.33712        52.12664        -0.69169
C         52.56863        54.26642         0.05465
C         51.31821        55.03381        -0.05279
C         52.55572        57.14728         0.26867
C         51.31435        56.43119         0.10193
C         52.49691        58.59307         0.68714
C         51.28029        59.32801         0.19278
C         52.55237        61.44992         0.37057
C         51.31524        60.76561         0.18747
C         53.79236        46.47198        -0.48699
C         55.15248        48.55089        -0.67046
C         53.82706        47.83990        -0.48560
C         55.11506        50.03108        -0.37757
C         53.84811        50.72887        -0.79916
C         55.05938        52.89031        -0.24392
C         53.82686        52.20218        -0.45818
C         55.06723        54.38269        -0.51465
C         53.85749        55.03234         0.13529
C         55.02559        57.20481         0.34122
C         53.77818        56.50455         0.18056
C         55.00891        58.62824         0.52132
C         53.79020        59.33789         0.49381
C         55.03791        61.45523         0.52058
C         53.78819        60.76332         0.48048
C         56.20338        50.71678         0.04446
C         57.39601        52.86731         0.46354
C         56.23745        52.17867         0.08015
C         57.46882        54.29798         0.50234
C         56.40875        55.11698        -0.20599
C         57.41174        57.18169         0.78976
C         56.24454        56.49960         0.38433
C         57.43026        58.58544         0.85151
C         56.24772        59.32636         0.65535
C         57.52243        61.43334         0.57253
C         56.25359        60.77079         0.62445
C         58.56317        54.94203         1.01984
C         59.86804        57.10725         0.64595
C         58.64885        56.42895         1.23359
C         59.91996        58.47561         0.59335
C         58.73959        59.29058         1.10823
C         59.96152        61.34074         0.32886
C         58.72570        60.72993         0.63086
C         61.10138        59.18439         0.19251
C         61.12324        60.56961         0.13036
O         45.20886        58.00420         0.97796
O         44.67506        41.65817         2.32110
O         53.32395        54.42141         1.33826
O         37.07207        58.99333         1.82663
O         47.72318        46.21553        -1.42031
O         30.58326        58.78700         1.18127
O         57.11697        55.34400        -1.53509
O         34.02579        60.01846        -1.39575
O         40.67100        48.40100         1.72662
O         42.15455        50.18325        -1.31673
O         37.99291        46.00317         2.12614
H         37.30497        45.53897         2.64584
O         46.55145        37.95836        -1.74062
H         45.78506        38.44331        -2.11137
O         45.97108        55.98849        -2.07349
H         46.76336        56.10387        -2.65405
O         45.22064        48.83231         2.37511
H         46.17479        48.82019         2.63485
O         45.43364        44.32676         2.65644
H         45.35403        43.38197         2.93564
O         32.65994        62.57467        -0.98526
H         32.80948        62.09381        -1.82672
O         46.47812        55.56210         1.49805
H         46.51359        54.76363         2.06445
O         48.00435        48.65559         2.07303
H         48.75612        49.27584         2.19975
O         48.05072        57.29120        -2.27746
H         47.69371        58.12966        -2.64043
O         55.51055        48.42948        -2.07344
H         55.35239        47.50153        -2.34759
O         36.74675        50.52013         1.95624
H         35.99455        50.91783         2.44173
O         58.73815        56.58612         2.68582
H         58.78685        57.55872         2.87499
O         47.48927        37.10133         1.70187
H         48.24226        36.57836         2.04757
O         40.57830        43.94965        -1.24286
H         39.85749        44.38163        -1.75813
O         41.01282        43.76518         2.37726
H         41.73286        43.42239         2.94687
O         50.07409        45.70409        -2.25242
H         49.21971        46.08033        -2.56940
O         52.32512        58.54459         2.16170
H         53.04537        57.98331         2.52163
O         58.90601        59.36025         2.57153
H         59.74803        59.83408         2.74218
O         56.55118        56.51236        -2.18373
H         57.18081        57.23288        -1.93498
O         54.77825        54.50312        -1.93124
H         55.63403        54.47488        -2.41615
O         43.89406        59.39206        -2.18610
H         43.00451        59.67158        -2.49221
O         37.35918        50.16364        -1.61512
H         38.10624        49.79366        -2.12996
O         42.72779        39.68274         2.53141
H         43.50322        40.19920         2.86136
O         51.58710        51.17011         1.48656
H         51.70203        50.35180         2.01360
O         51.22857        51.83561        -2.10373
H         52.08883        51.45224        -2.40761
O         48.49403        43.23966        -1.78585
H         48.73538        44.03949        -2.30561
O         45.08025        62.00368        -2.00402
H         44.88632        61.18140        -2.51070
O         53.78669        50.65056        -2.26892
H         54.30220        49.85113        -2.54237
O         38.72657        46.06435        -1.46040
H         39.32854        46.63530        -1.98304
O         49.16916        42.59334         1.75287
H         49.23149        41.77034         2.28093
H         29.61737        56.43255        -1.01719
H         28.03163        58.75545        -1.00021
H         30.24434        62.34454        -0.39519
H         28.26752        61.13886        -0.86679
H         31.86272        52.32003         0.06518
H         30.65940        54.42129        -0.16454
H         32.87528        62.20086         1.03020
H         34.27153        48.03538        -0.01290
H         33.06323        50.20104        -0.00843
H         35.34397        62.59730         0.03294
H         36.83419        43.67964         0.70110
H         35.51548        45.89717         0.50729
H         37.81237        62.55895         0.30120
H         39.28530        39.42545         0.27849
H         38.04513        41.53489         0.47950
H         40.26968        62.54832         0.35501
H         41.72082        35.19997        -0.00938
H         40.49520        37.32078         0.15818
H         42.71926        62.56636         0.20166
H         45.10041        31.90238        -0.89277
H         42.95936        33.08613        -0.44401
H         45.19543        62.56093        -0.01210
H         47.26430        33.11229        -0.85441
H         48.53506        35.15963        -0.29457
H         47.67140        62.60193        -0.29088
H         49.81629        37.38517        -0.20931
H         50.99025        39.50443        -0.46328
H         50.11936        62.57204         0.01165
H         52.23839        41.67157        -0.50121
H         53.44920        43.78362        -0.47201
H         52.55311        62.55012         0.35977
H         54.73277        45.90055        -0.54915
H         55.94976        48.04714        -0.05164
H         55.03811        62.55440         0.47530
H         57.12822        50.17582         0.30196
H         58.26757        52.29443         0.81517
H         57.54371        62.51328         0.35815
H         59.36365        54.33981         1.47806
H         60.74721        56.50915         0.36012
H         59.99134        62.42226         0.13089
H         61.99860        58.60675        -0.07282
H         62.05370        61.07909        -0.15827
