         316
 CSIRO Nanostructure Databank - Neutral Graphene Oxide Data Set
C         30.29427        31.74988        -0.09603
C         30.32629        32.95551        -0.36945
C         30.40266        36.11718        -0.11355
C         30.32736        37.33519         0.13808
C         30.35645        40.35880         0.15416
C         30.38414        41.60105         0.01793
C         32.60105        28.62859        -0.02117
C         31.63000        29.40270         0.08967
C         32.70759        31.61558        -0.08014
C         31.41885        30.80316        -0.42854
C         32.65294        33.15501        -0.04244
C         31.48148        33.81995        -0.82813
C         32.70923        35.97646        -0.32919
C         31.51191        35.28975        -0.48012
C         32.77492        37.33250         0.28040
C         31.48089        38.09991         0.63687
C         32.77740        40.16597         0.07783
C         31.48217        39.60780         0.81893
C         32.87096        41.72431        -0.07967
C         31.44897        42.52584        -0.01459
C         32.82122        44.38861         0.43166
C         31.66136        43.85768         0.13907
C         35.53200        27.25758        -1.03378
C         35.17303        28.49353        -0.42488
C         34.00922        28.82473         0.21638
C         35.20852        31.67667        -0.23555
C         33.90724        31.09187         0.28926
C         35.22821        33.14429         0.24521
C         33.99927        33.81399        -0.35025
C         35.33243        36.06253        -0.53391
C         34.01266        35.29295        -0.57477
C         35.26451        37.41359         0.11968
C         34.08252        38.05280         0.27931
C         35.33060        40.24279         0.40447
C         34.05022        39.49759         0.74181
C         35.25831        41.71901         0.44507
C         33.91805        42.31184         0.90015
C         35.19227        44.49840         1.44596
C         33.99506        43.88176         0.85551
C         35.45200        45.93941         1.48140
C         37.91627        27.18940        -1.04981
C         36.57600        26.63861        -1.27382
C         37.80225        28.69410        -0.68806
C         36.45012        29.37848        -0.43360
C         37.72092        31.66088        -0.23350
C         36.44268        30.84731         0.20368
C         37.76695        33.11082         0.39081
C         36.51820        33.89488         0.03894
C         37.79759        35.99363        -0.12089
C         36.54564        35.25854        -0.11831
C         37.82096        37.40812         0.02698
C         36.56188        38.09241         0.53000
C         37.79300        40.33031         0.24311
C         36.53307        39.59448         0.30535
C         37.81488        41.69662         0.44406
C         36.55934        42.47198         0.55758
C         37.86063        44.57540         1.48266
C         36.54886        43.78557         1.29115
C         37.75632        46.02567         0.84567
C         36.49564        46.59798         1.38388
C         40.11944        24.41902         0.29995
C         39.20737        24.96602        -0.36413
C         40.14302        27.15332         0.20505
C         39.15055        26.41246        -0.64511
C         40.41950        28.61561        -0.20690
C         39.05939        29.38159        -0.14801
C         40.25953        31.69211         0.33472
C         38.99300        30.86187         0.11064
C         40.23138        33.05282        -0.44473
C         39.00741        33.86061        -0.07093
C         40.22737        35.95964        -0.76104
C         39.01294        35.22406        -0.28230
C         40.22943        37.46448        -0.60929
C         39.01806        38.14214        -0.06173
C         40.26511        40.26060         0.08833
C         39.05744        39.58511         0.09889
C         40.36268        41.76622        -0.05150
C         39.06194        42.49667         0.31509
C         40.40006        44.70971         1.07803
C         39.08487        43.91987         0.83445
C         40.29562        45.95551         0.12366
C         38.92908        46.68487         0.20956
C         40.08260        48.74268        -0.55468
C         39.13479        48.11443        -0.06409
C         42.44119        24.72928         1.50268
C         41.11598        24.99957         1.12892
C         42.78991        27.61460         1.54200
C         40.86402        26.45391         1.14816
C         42.72402        28.93041         0.98282
C         41.55802        29.44968         0.45502
C         42.77878        31.71232         0.43529
C         41.54014        30.89359        -0.04344
C         42.76886        33.03877        -0.30694
C         41.50240        33.87985        -0.14770
C         42.80610        35.98087        -0.59691
C         41.55404        35.19283        -0.98840
C         42.79147        37.37248        -0.45079
C         41.55993        38.23297        -0.67749
C         42.82170        40.29444         0.13862
C         41.54469        39.46608         0.27275
C         42.84535        41.64243         0.36207
C         41.53951        42.30283         0.79794
C         42.83020        44.39722         0.74399
C         41.60792        43.81384         0.80381
C         42.83703        46.48530        -0.06611
C         41.42843        46.73294        -0.50095
C         42.53303        48.63610        -1.60307
C         41.14886        48.12072        -1.42926
C         43.45198        25.44352         1.75837
C         45.28373        27.42330         1.53207
C         43.90317        26.77071         1.54695
C         45.26915        28.78929         0.81459
C         44.06471        29.66657         1.11997
C         45.33121        31.65297         0.34172
C         44.04884        30.87863         0.18734
C         45.33285        33.11036        -0.03425
C         44.05674        33.77543        -0.47410
C         45.31263        35.89652        -0.10810
C         44.01246        35.24629        -0.49954
C         45.32398        37.38676        -0.46813
C         44.04223        38.07620         0.06496
C         45.35689        40.25190         0.25632
C         44.08362        39.58348        -0.32424
C         45.40204        41.75645        -0.15424
C         44.07317        42.42261         0.17244
C         45.25916        44.68459         0.05686
C         44.05494        43.79121         0.28272
C         45.20505        46.01603        -0.82655
C         43.96992        46.89648        -0.71296
C         43.57893        47.95659        -1.63861
C         47.46780        27.32415         0.56759
C         46.43968        26.67706         0.89442
C         47.71680        28.66956         0.25384
C         46.47506        29.43410         0.37462
C         47.76131        31.49980        -0.45615
C         46.53912        30.84741         0.16006
C         47.80962        33.03548        -0.42593
C         46.59411        33.72173        -0.43052
C         47.84051        35.80212        -0.11893
C         46.54513        35.19505        -0.72024
C         47.80265        37.31465        -0.00685
C         46.64320        38.02316        -0.01535
C         47.88818        40.20256         0.53274
C         46.68817        39.53827        -0.14733
C         47.86747        41.71100         0.63105
C         46.51327        42.50411         0.64279
C         47.90256        44.56848        -0.35893
C         46.58341        43.98934         0.21793
C         47.61955        46.05100        -0.28346
C         46.56793        46.61830        -0.58134
C         50.30113        28.76986         0.51749
C         49.02766        29.29421        -0.13547
C         50.26188        31.59156        -0.30629
C         49.02007        30.83185         0.17307
C         50.25210        33.09087         0.01861
C         49.04562        33.70671        -0.65536
C         50.37647        35.83772        -0.48427
C         49.07118        35.22412        -0.88078
C         50.33906        37.05799         0.42118
C         49.16016        38.00086        -0.09897
C         50.48941        40.19058         0.22605
C         49.20842        39.37686         0.62338
C         50.41700        41.65646         0.72009
C         49.16934        42.39045         0.19636
C         50.47671        44.38069        -0.04365
C         49.10003        43.97842         0.41760
C         51.28923        29.51541         0.72073
C         52.60863        31.81847         0.61485
C         51.74640        30.82081         0.57577
C         52.65955        33.07473         0.20292
C         51.60650        33.77033        -0.29793
C         52.74821        36.00268        -0.60875
C         51.61814        35.12171        -1.02092
C         52.77636        37.00357         0.10319
C         51.70375        37.88072         0.56662
C         52.85355        40.31232         0.50261
C         51.74334        39.36864         0.66282
C         52.86341        41.54492         0.48068
C         51.75724        42.47769         0.86751
C         51.52176        43.72169         0.03331
O         34.07376        34.32678        -1.70036
O         46.03792        44.84906         1.27544
O         35.67145        36.39629        -1.97596
O         41.58776        27.15421         2.11405
O         37.87651        46.05269        -0.57741
O         38.85111        43.65534        -0.57294
O         47.80151        40.88259         1.82370
O         38.94744        26.87674        -2.01223
O         39.92613        36.82750        -1.89945
O         34.10529        29.93492         1.06220
O         42.95681        45.74070         1.09924
O         45.33305        32.67653         1.39120
O         35.77506        43.74024         2.53823
O         35.79267        42.44874        -0.70113
O         32.19464        37.39033         1.66035
O         40.77265        45.63050        -1.21431
O         51.76993        38.55266         1.84562
O         37.08309        29.39531        -1.75073
O         38.82820        29.89908         1.21345
O         43.40012        33.04608        -1.60537
O         38.08145        44.70582         2.88415
H         37.19826        44.63937         3.32442
O         31.63593        33.61309        -2.22073
H         30.91972        34.08087        -2.69640
O         50.67215        40.18391        -1.19983
H         49.98261        40.76773        -1.60438
O         41.45867        34.31737         1.23830
H         40.71343        33.85216         1.69032
O         48.95713        44.28054         1.78216
H         49.77243        43.99796         2.25166
O         44.05706        30.37477        -1.16615
H         44.01771        31.16211        -1.76399
O         46.43708        35.31340        -2.15730
H         47.30649        35.05590        -2.55964
O         41.69274        34.93255        -2.38286
H         41.10807        34.16880        -2.61228
O         47.69077        31.23284        -1.87971
H         47.76625        30.26309        -2.03400
O         45.60637        27.63222         2.91342
H         45.36940        28.56343         3.14202
O         43.96261        37.91932         1.50289
H         44.38279        38.70949         1.93297
O         44.13685        39.75209        -1.75548
H         43.28298        39.40160        -2.13286
O         32.68635        39.59326        -1.22971
H         33.03080        40.24961        -1.88012
O         40.25234        32.02636         1.73121
H         39.94490        31.23441         2.22762
O         40.47627        45.23865         2.39972
H         40.25782        44.54125         3.05193
O         33.97010        39.46162         2.18559
H         34.73873        38.92551         2.49329
O         40.66714        42.03541        -1.43185
H         40.18074        42.85447        -1.68862
O         42.72118        32.00456         1.84289
H         42.46081        32.95122         1.96305
O         50.05965        36.56757         1.73166
H         50.13445        37.33384         2.35050
O         37.80731        32.95572         1.83939
H         37.73078        33.84875         2.23691
O         47.97156        44.27766        -1.74190
H         48.71632        44.77726        -2.13427
O         51.89046        42.89238         2.20915
H         52.76884        43.30779         2.33107
O         45.25753        37.57811        -1.89726
H         45.69148        36.80807        -2.34737
O         46.08807        42.51771         2.01806
H         46.09152        43.45904         2.32634
O         45.21556        40.16341         1.68458
H         45.96180        40.65991         2.11581
O         45.67890        41.94083        -1.53961
H         45.07039        41.35378        -2.04938
O         48.96874        35.51593        -2.33071
H         49.09738        36.50180        -2.40204
O         31.43695        30.68333        -1.84341
H         30.59889        30.27426        -2.14156
O         34.49675        36.99750        -2.55644
H         34.08043        36.23892        -3.03648
O         41.48675        38.95115         1.62879
H         41.44259        39.73448         2.22448
O         44.23499        30.02682         2.51324
H         43.78597        30.89764         2.66359
O         32.34952        33.44830         1.33676
H         33.14020        33.21794         1.88225
O         49.15926        42.23046        -1.25032
H         49.88394        42.79370        -1.60493
O         36.39393        30.75749         1.62419
H         37.26339        30.41890         1.94772
O         31.49575        39.95630         2.18943
H         31.75559        39.16159         2.70893
O         40.61842        47.75469        -2.64742
H         39.99749        47.00240        -2.51897
O         49.32868        39.03333         2.01509
H         49.16507        39.85195         2.53897
O         36.58098        37.94690         2.00288
H         37.43569        38.30609         2.32534
O         37.69760        31.90739        -1.64693
H         37.36591        31.09501        -2.10932
O         48.88504        30.90993         1.59016
H         49.19232        31.80438         1.89045
O         40.88337        28.52508        -1.56465
H         40.23947        27.99897        -2.10322
O         51.58950        34.90185        -2.42319
H         50.65300        34.91285        -2.73523
O         50.53590        31.41615        -1.63450
H         50.25718        30.51451        -1.92618
O         33.62486        41.97723         2.24524
H         32.79071        41.45148         2.31500
O         33.32889        41.96459        -1.40875
H         33.60763        42.90147        -1.49535
O         41.65641        38.76382        -2.02734
H         41.25612        38.08266        -2.62153
O         49.19759        29.07277        -1.56295
H         49.32896        28.10992        -1.70478
O         50.03324        33.27013         1.44467
H         49.62059        34.16039         1.58935
O         45.18006        45.55617        -2.17176
H         45.08096        46.32672        -2.77049
O         41.25645        41.87328         2.17090
H         41.98259        42.20376         2.74277
O         35.00636        33.10476         1.68560
H         35.63384        32.42891         2.05479
O         47.97719        35.26834         1.21689
H         47.11860        35.42579         1.68687
O         45.41254        35.75478         1.33311
H         44.77848        36.41379         1.73149
O         41.54922        30.88321        -1.47278
H         42.17228        30.18355        -1.77420
O         35.14983        31.60242        -1.66718
H         34.56461        32.30831        -2.02081
O         46.95952        39.72579        -1.56574
H         46.20251        39.29899        -2.04743
O         49.32564        38.14247        -1.53221
H         48.62642        38.78128        -1.83462
O         40.17335        32.84155        -1.86347
H         39.26360        32.51305        -2.09042
