         300
 CSIRO Nanostructure Databank - Neutral Graphene Oxide Data Set
C         30.30486        31.59211        -0.37267
C         30.33078        32.82226        -0.33521
C         30.67723        35.90667        -1.21794
C         30.87569        37.11039        -1.66274
C         31.20203        40.23510        -2.52407
C         31.26997        41.47137        -2.59316
C         32.79040        28.74463        -0.56076
C         31.69589        29.31187        -0.51245
C         32.74045        31.46873        -0.03115
C         31.41547        30.67919        -0.08295
C         32.75404        32.98462        -0.27040
C         31.41434        33.75549         0.11569
C         32.85100        35.80150        -0.30646
C         31.52288        35.12100        -0.50209
C         33.01927        37.25884        -0.70831
C         31.90220        37.96858        -1.43478
C         32.86623        40.14693        -0.78194
C         32.26274        39.32278        -1.98190
C         32.99542        41.66169        -0.98312
C         32.10477        42.34186        -1.79994
C         32.98141        44.41727        -0.95267
C         32.27233        43.77592        -1.73784
C         35.59307        27.17107         0.05348
C         35.41017        28.58725        -0.29274
C         34.14462        29.30658        -0.59487
C         35.33194        31.51566         0.22374
C         34.08536        30.81743        -0.29941
C         35.18864        32.89359         0.85879
C         33.90176        33.61231         0.53989
C         35.06171        35.89924         1.00198
C         33.84854        35.12339         0.60667
C         35.03631        37.44914         0.93921
C         34.09833        38.09025        -0.10145
C         35.45913        40.19445        -0.20073
C         34.14269        39.43645        -0.32713
C         35.31696        41.72772        -0.09663
C         33.92132        42.34895         0.02832
C         35.26447        44.70252         0.30826
C         34.01822        43.93690        -0.03636
C         35.47965        46.07768        -0.13324
C         37.83437        27.16718         1.12650
C         36.56377        26.59084         0.53455
C         37.83709        28.57136         0.43910
C         36.56269        29.35626         0.29508
C         37.83125        31.35828         1.04069
C         36.54026        30.70035         0.51780
C         37.78638        32.90530         1.23055
C         36.44390        33.67902         1.27849
C         37.36935        35.99459         1.76880
C         36.36650        35.20521         1.27305
C         37.47196        37.50546         1.75575
C         36.43350        38.07780         0.79005
C         37.66753        40.27917         1.17365
C         36.29121        39.62375         0.97132
C         37.74638        41.73635         0.83133
C         36.52744        42.47906         0.34089
C         37.80340        44.38005        -0.18951
C         36.56763        43.97074         0.67777
C         37.14345        48.01749        -0.67923
C         36.08672        47.12582        -0.30565
C         40.48983        24.44048         1.35307
C         39.41081        25.04335         1.34906
C         40.41175        27.15303         0.63488
C         39.11590        26.40492         0.84577
C         40.35315        28.66820         0.89521
C         39.11175        29.31810         0.26355
C         40.27430        31.57802         0.37583
C         38.97723        30.84507         0.10215
C         40.15456        33.05355         0.12972
C         39.05562        33.65684         0.94328
C         40.27692        35.82465         0.84703
C         39.28289        34.92643         1.40046
C         40.10407        37.35479         0.77313
C         38.86937        38.08959         1.34316
C         40.20188        40.21961         1.35006
C         38.91011        39.45561         1.20382
C         40.25807        41.75970         1.27130
C         39.04826        42.40091         0.62556
C         40.33378        44.44339         0.26969
C         39.07631        43.71399         0.24908
C         40.25652        45.92767         0.32828
C         37.68646        48.98446         0.15243
C         40.26579        48.96801        -0.16753
C         39.08719        49.22782         0.01183
C         43.13133        24.45272         0.83330
C         41.70458        24.88325         0.58245
C         42.88642        27.17169         0.16209
C         41.76866        26.45978         0.91625
C         42.95715        28.63774         0.26462
C         41.68150        29.39104         0.58774
C         42.89065        31.64964         0.14581
C         41.59715        30.89427         0.44040
C         42.70425        33.08751        -0.52307
C         41.38817        33.84940        -0.18786
C         42.25619        36.27768        -0.56808
C         41.32748        35.31441         0.11930
C         42.54741        37.64856         0.11378
C         41.49210        37.96077         1.19590
C         42.85010        40.22602         1.39870
C         41.49380        39.47296         1.42150
C         42.75090        41.64858         0.85677
C         41.56467        42.32660         0.72497
C         42.78135        44.53489         0.52181
C         41.51935        43.75880         0.42186
C         42.81349        46.02728         0.45579
C         41.52270        46.71975         0.03802
C         42.86945        48.72215        -0.08339
C         41.49981        48.22231        -0.30186
C         44.05617        25.06812         0.28170
C         45.16893        27.10332        -1.03281
C         44.06506        26.40630        -0.31071
C         45.12453        28.65898        -1.24477
C         44.20980        29.41865        -0.20830
C         45.11789        31.65832        -1.15074
C         43.82201        30.83891        -0.80121
C         45.21876        33.22365        -0.92278
C         44.00568        33.79113        -0.21580
C         45.26077        35.88701         0.19187
C         44.13318        34.91416         0.54013
C         45.19462        37.18541         1.00527
C         43.96941        38.07619         0.62626
C         45.33683        40.14611         0.52828
C         44.03912        39.42166         0.85392
C         45.35512        41.65526         0.75276
C         44.05116        42.37791         0.77327
C         45.17621        44.38770        -0.49895
C         44.00325        43.74876         0.17358
C         45.03007        45.98031        -0.82621
C         44.26292        46.67197         0.31314
C         43.92606        48.10853         0.04170
C         47.52575        27.25506        -1.66807
C         46.55404        26.64400        -1.19749
C         47.78527        28.68725        -1.46628
C         46.47975        29.39619        -1.15026
C         47.73853        31.57217        -1.03388
C         46.41018        30.89962        -1.33320
C         47.79725        32.94765        -0.44040
C         46.49929        33.67658        -0.17919
C         47.84544        35.90761         0.07755
C         46.56845        35.09240         0.30198
C         47.88834        37.15651         1.00627
C         46.55884        37.94702         1.07129
C         47.87213        40.25370         1.02272
C         46.58930        39.44362         1.02953
C         47.84216        41.73583         0.66607
C         46.57038        42.34470         0.23723
C         47.83656        44.45060        -0.54636
C         46.51966        43.65917        -0.40956
C         47.52232        45.87950        -0.61638
C         46.45333        46.41461        -0.91614
C         50.32068        28.93554        -1.99726
C         48.95428        29.45923        -1.97124
C         50.30527        31.57658        -1.28369
C         48.97201        30.96848        -1.68288
C         50.33798        32.86851        -0.50541
C         49.08151        33.79468        -0.66104
C         50.33001        35.74514         0.43501
C         49.15142        35.11222         0.14554
C         50.38224        37.20010         0.86924
C         49.12873        38.04214         0.59845
C         50.47836        40.23632         0.94251
C         49.18500        39.48520         1.14239
C         50.35952        41.55863         0.17996
C         49.15820        42.45600         0.45070
C         50.37196        44.16208        -0.79295
C         49.12876        43.88224        -0.06143
C         51.37989        29.61000        -2.14629
C         52.69736        31.77413        -1.47316
C         51.60960        30.92866        -1.72339
C         52.74581        32.89826        -0.90722
C         51.65838        33.58062        -0.19381
C         52.78719        35.87888         0.28582
C         51.63625        34.97245         0.33764
C         52.78080        37.08928         0.49668
C         51.70006        37.96211         0.96398
C         52.66509        40.06126        -0.11466
C         51.87506        39.46650         0.98938
C         52.68779        41.20493        -0.58150
C         51.50250        42.04597        -0.74573
C         51.40051        43.49771        -0.94727
O         46.50503        38.75176         2.30692
O         40.78371        39.78457         2.65476
O         36.19457        42.35077        -1.08051
O         48.75426        30.46160        -3.01208
O         37.61902        41.29619         2.23255
O         45.63525        31.33360        -2.47628
O         49.91768        40.01907         2.27046
O         34.95008        31.56126        -1.20621
O         51.05049        37.44385         2.14830
O         42.61447        36.09538        -1.71683
O         44.19526        43.67008        -1.28856
O         37.70022        44.98374        -1.24056
O         42.63158        29.09354         1.66052
O         37.09648        33.17955         2.48475
O         41.51038        47.22281        -1.34221
O         47.30951        43.73347        -1.67726
O         40.91538        31.37892         1.67359
O         44.85014        42.22503         1.99633
O         38.47243        35.43535         2.42527
O         39.19284        46.46095         0.62127
O         34.17485        44.52110         1.26901
O         44.17156        26.42914        -1.81662
O         50.29666        31.63668         0.20396
O         49.07514        34.23243        -1.98254
O         32.05155        30.99923         1.16674
O         50.39801        41.30763        -1.28330
O         51.79046        33.83429         1.21643
O         40.35364        33.53326        -1.22104
O         47.90628        31.77927         0.40481
O         47.40405        29.03659        -0.10143
O         42.75259        45.35872         1.74589
O         34.10875        32.97580         1.82777
O         33.99335        35.52456         1.98232
O         46.43692        34.00664         1.24747
O         35.05136        28.95317        -1.64868
O         47.74663        41.25741         2.06356
O         39.67812        26.58928        -0.47402
O         33.56429        36.16128        -1.54660
O         49.31621        43.60932         1.33986
O         38.52512        28.62011        -0.86110
O         37.81721        47.68586        -1.82443
H         37.61371        46.75509        -2.06602
O         33.41416        42.02202         1.33255
H         33.66871        42.74672         1.95137
O         44.99703        46.45386         1.48677
H         44.46753        46.72202         2.26649
O         36.96780        37.70035        -0.49752
H         36.55660        38.26702        -1.20071
O         38.13007        30.81150         2.33344
H         37.63640        31.33967         3.00272
O         43.19608        35.17989         1.48820
H         43.46882        35.95111         2.05566
O         32.93395        33.23649        -1.66297
H         33.73731        32.75711        -1.97683
O         40.16810        28.76640         2.32290
H         40.17272        29.72348         2.56676
O         45.34489        33.82530        -2.23425
H         44.52281        33.58710        -2.72499
O         37.67515        27.35270         2.51507
H         37.93152        26.53201         2.98553
O         47.70462        36.31532        -1.30718
H         48.12418        35.57669        -1.86574
O         41.89555        37.35039         2.42991
H         41.53689        37.90222         3.16131
O         45.09014        36.32470        -1.16811
H         45.18130        35.53632        -1.77219
O         48.13550        36.64398         2.31556
H         47.95100        37.35559         2.96760
O         43.23422        40.36827         2.79015
H         42.44915        40.71714         3.27313
O         36.16228        39.93912        -1.44063
H         35.67161        40.36735        -2.17521
O         44.30507        46.13566        -2.00780
H         44.74785        45.65444        -2.73635
O         42.71878        32.98025        -1.95807
H         41.78457        32.95711        -2.27354
O         39.94784        37.61555        -0.64707
H         38.99792        37.48054        -0.87980
O         35.52759        39.98794         2.11741
H         35.92969        39.55909         2.90604
O         41.43603        24.70248        -0.77057
H         41.31079        23.75345        -0.97140
O         42.03493        26.53369         2.32101
H         42.15465        27.48586         2.55917
O         43.03424        30.58415        -1.96455
H         43.65368        30.50226        -2.72896
O         37.21085        37.97980         3.08900
H         37.73079        37.43523         3.71748
O         40.22113        42.24711         2.64084
H         39.35096        41.97159         3.01679
O         49.12145        38.37464        -0.80427
H         48.73887        37.62429        -1.33583
O         44.69379        28.82194        -2.59586
H         44.14970        28.03616        -2.84086
O         45.43216        40.07052        -0.92912
H         45.22029        39.15762        -1.22481
O         34.49879        37.87734         2.19869
H         33.85728        37.19214         2.50416
O         38.62844        31.14540        -1.24909
H         38.30453        30.31039        -1.66850
O         33.28649        39.15163        -2.95782
H         33.01948        38.44687        -3.58477
O         44.92218        36.82151         2.37532
H         45.13174        37.61040         2.93196
O         42.31042        38.59402        -0.95690
H         42.48989        38.12109        -1.80325
O         31.36691        33.86792         1.52690
H         30.51233        34.25939         1.79928
O         37.01682        49.49417         1.22674
H         36.10651        49.13595         1.24488
O         36.85289        44.13432         2.06507
H         36.87414        45.09023         2.27747
O         43.56791        31.82493         1.39800
H         42.89374        31.99946         2.09169
O         45.04001        29.59031         0.93466
H         44.54739        30.13122         1.59754
O         31.91410        39.97363         0.28708
H         32.20906        40.54445         1.03712
O         52.50065        39.80531         2.21691
H         52.00451        39.36186         2.93935
