         638
 CSIRO Nanostructure Databank - Neutral Graphene Oxide Data Set
C         23.11175        69.72584        -1.69400
C         23.09196        71.11226        -1.93131
C         21.91577        71.85059        -2.07958
C         23.11208        73.98339        -2.12840
C         21.96044        73.26950        -2.28298
C         25.53864        65.51633        -0.76791
C         25.52970        66.91599        -0.97901
C         24.33040        67.62364        -1.24603
C         25.58153        69.72961        -1.47711
C         24.32275        69.00934        -1.48678
C         25.62012        71.11911        -1.71466
C         24.38992        71.85235        -2.18564
C         25.65475        73.98251        -1.90970
C         24.35120        73.28093        -1.62588
C         27.96285        61.29610        -0.15979
C         27.91888        62.68590        -0.10373
C         26.73881        63.40306        -0.38725
C         27.97813        65.54753        -0.37914
C         26.72663        64.81739        -0.48522
C         27.99098        66.94766        -0.64066
C         26.77644        67.63271        -0.93508
C         28.02732        69.74318        -1.18453
C         26.78984        69.03305        -1.18806
C         28.04830        71.14406        -1.43051
C         26.82862        71.83430        -1.66526
C         28.11614        73.95147        -1.92891
C         26.84251        73.28473        -1.87054
C         30.44170        56.98229         0.18371
C         30.53842        58.45523        -0.10447
C         29.22763        59.18966        -0.10764
C         30.42405        61.31804         0.21197
C         29.18588        60.56163         0.02037
C         30.42312        62.71212         0.21820
C         29.12158        63.44939         0.40591
C         30.41313        65.57870        -0.02103
C         29.18167        64.88264        -0.06411
C         30.44767        66.97932        -0.29936
C         29.23220        67.65807        -0.60545
C         30.47584        69.75690        -0.95225
C         29.24179        69.05085        -0.91091
C         30.49288        71.13236        -1.33574
C         29.30133        71.83295        -1.51686
C         30.57042        73.96549        -1.68085
C         29.31740        73.27217        -1.75880
C         32.60352        52.71228         0.68369
C         32.71580        54.09935         0.94019
C         31.58827        54.85914         0.61110
C         32.84128        56.99639         0.73772
C         31.56582        56.28472         0.56933
C         32.85537        58.35006         0.78893
C         31.54313        59.12603         0.83531
C         32.84005        61.26640         0.55158
C         31.65815        60.59435         0.45737
C         32.95539        62.72631         0.16926
C         31.63578        63.46093         0.26049
C         32.91335        65.58957         0.26352
C         31.64966        64.86069         0.21961
C         32.92856        67.02268         0.06153
C         31.68388        67.71457        -0.24257
C         32.87390        69.91408        -0.36808
C         31.66895        69.08707        -0.55480
C         32.97371        71.18958        -1.02976
C         31.79411        71.77959        -1.73434
C         33.01250        73.98249        -1.39973
C         31.78617        73.29490        -1.56938
C         35.27059        48.59492         0.27717
C         35.24250        49.93832         0.68385
C         33.95341        50.59507         0.50425
C         35.38744        52.78423         1.83833
C         33.55160        51.75887         1.12213
C         35.30122        54.10488         1.50911
C         33.95774        54.86003         1.47909
C         35.36101        56.96503         1.01995
C         34.11356        56.16779         0.64202
C         35.36051        58.33056         1.03175
C         34.14387        59.07443         0.51644
C         35.34151        61.29601         1.09358
C         34.06647        60.53617         0.93112
C         35.36833        62.75060         0.87951
C         34.04341        63.46979         0.96383
C         35.38334        65.56955         0.44377
C         34.11054        64.91453         0.51962
C         35.40998        67.01057         0.24284
C         34.15376        67.70878         0.12014
C         35.44268        69.87719        -0.17495
C         34.17659        69.18069         0.04215
C         35.46668        71.20282        -0.58960
C         34.29375        71.82735        -1.29897
C         35.46046        74.02532        -1.03449
C         34.25358        73.34005        -1.19709
C         37.67702        44.36698        -0.47447
C         37.66456        45.78247        -0.33796
C         36.46224        46.47309        -0.08669
C         37.71378        48.55598         0.32293
C         36.47220        47.85888         0.17960
C         37.71140        49.91808         0.76142
C         36.47816        50.57998         1.04238
C         37.83009        52.65350         1.52958
C         36.58894        51.87654         1.83698
C         37.77705        54.08626         1.95082
C         36.55375        54.84919         1.43380
C         37.92401        56.92257         1.12251
C         36.58741        56.21234         1.26974
C         37.87748        58.41520         1.38627
C         36.55884        59.13123         1.52832
C         37.82927        61.32513         1.19481
C         36.61083        60.50981         0.84721
C         37.83426        62.68429         0.98934
C         36.57321        63.41834         0.77005
C         37.89774        65.51484         0.26526
C         36.58317        64.84739         0.57876
C         37.88459        67.02062         0.41036
C         36.63547        67.70484         0.26963
C         37.93729        69.81029        -0.08161
C         36.65596        69.21341         0.41656
C         37.93053        71.15632        -0.63198
C         36.68501        71.92551        -0.68162
C         37.95084        74.03738        -0.85268
C         36.71480        73.33513        -0.89980
C         40.12280        40.06622        -0.71367
C         40.08113        41.49479        -0.87308
C         38.92033        42.21781        -0.65423
C         40.08098        44.37424        -0.88256
C         38.89065        43.66057        -0.66609
C         40.09004        45.87431        -1.03276
C         38.88725        46.52702        -0.40647
C         40.18635        48.57761         0.09200
C         38.92738        47.87421        -0.00196
C         40.19948        49.94090         0.51965
C         38.98116        50.60085         0.86034
C         40.27697        52.71028         1.26713
C         39.01659        52.00117         1.21192
C         40.25530        54.12289         1.59236
C         39.07833        54.80514         1.76098
C         40.32968        57.00468         1.78750
C         39.01641        56.28365         2.00518
C         40.29321        58.39419         1.76221
C         39.03060        59.10814         1.63751
C         40.30441        61.24004         1.25916
C         39.01889        60.62465         1.82693
C         40.30358        62.75355         1.28421
C         39.08509        63.44793         1.08341
C         40.32892        65.55136         0.95597
C         39.11228        64.84392         0.86767
C         40.34394        67.06877         1.00505
C         39.09305        67.71561         0.44850
C         40.38412        69.82054        -0.05591
C         39.13241        69.12160         0.08204
C         40.44504        71.20404        -0.23172
C         39.25178        71.92172        -0.68690
C         40.40879        74.08067        -0.46627
C         39.20101        73.39778        -0.66650
C         42.45802        35.82854        -0.27480
C         42.45840        37.18938        -0.70638
C         41.30305        37.94345        -0.68260
C         42.43400        40.01350        -1.66116
C         41.26684        39.34102        -0.96603
C         42.52410        41.49682        -1.31213
C         41.33143        42.18140        -1.14998
C         42.61414        44.39891        -1.21010
C         41.29055        43.64554        -1.24297
C         42.59518        45.81532        -0.78195
C         41.40604        46.51382        -0.63671
C         42.62631        48.60901        -0.13725
C         41.40538        47.90902        -0.21985
C         42.66019        49.97567         0.24365
C         41.45093        50.64670         0.59304
C         42.76563        52.69173         1.09037
C         41.48593        52.02849         0.99283
C         42.83770        54.07842         1.62343
C         41.54084        54.82805         1.84306
C         42.79964        56.99000         1.77170
C         41.56291        56.30057         1.82308
C         42.82157        58.41502         1.87948
C         41.54278        59.11833         2.02648
C         42.82091        61.28460         1.63756
C         41.54314        60.63772         1.87932
C         42.84315        62.71145         1.15666
C         41.51995        63.43812         1.25626
C         42.83098        65.53316         1.08510
C         41.54325        64.84930         1.13632
C         42.90509        66.90700         0.48091
C         41.61294        67.66178         0.46644
C         42.75771        69.87290         0.68175
C         41.68047        69.06382        -0.03886
C         42.83614        71.31494         0.36803
C         41.65925        71.96292        -0.05492
C         42.84507        74.09985        -0.01095
C         41.63975        73.39746        -0.20157
C         44.84746        33.30714         1.10979
C         43.67998        33.85194         0.57679
C         44.80790        36.06353         0.44930
C         43.61975        35.21314         0.18919
C         44.86464        37.43406        -0.15842
C         43.78047        37.75425        -1.19074
C         45.06060        40.00481        -1.40338
C         43.76791        39.25450        -1.54125
C         45.02032        41.47919        -1.20017
C         43.79293        42.19639        -1.22859
C         45.05638        44.27941        -0.76053
C         43.83944        43.60604        -1.04520
C         45.05826        45.73355        -0.60875
C         43.87439        46.45451        -0.59936
C         45.14813        48.59484        -0.25795
C         43.86666        47.95781        -0.69872
C         45.14330        50.00195         0.00173
C         43.92039        50.68307         0.27915
C         45.28413        52.68767         0.99229
C         43.93764        52.04277         0.72291
C         45.26242        54.20097         1.06191
C         44.07090        54.87022         1.44061
C         45.25060        57.04114         1.50390
C         44.04631        56.28439         1.60493
C         45.25662        58.43944         1.58114
C         44.02216        59.14276         1.80043
C         45.26923        61.32751         1.67792
C         44.01124        60.59003         1.75295
C         45.26421        62.73137         1.72102
C         43.95258        63.46672         1.88507
C         45.27858        65.59769         1.45056
C         44.00496        64.89718         1.40232
C         45.27084        67.05419         1.33512
C         44.08955        67.69808         1.02932
C         45.25820        69.93254         1.17110
C         44.01533        69.15913         1.09916
C         45.24904        71.34092         0.96829
C         44.04346        72.02095         0.58471
C         45.26946        74.15351         0.45807
C         44.05369        73.44418         0.34380
C         46.02208        34.06199         1.25544
C         47.24844        36.17405         0.90375
C         46.06457        35.42124         0.89077
C         47.34020        37.46885         0.34093
C         46.18675        38.09589        -0.29561
C         47.65653        39.92281        -1.24291
C         46.29315        39.30360        -0.92058
C         47.49782        41.45324        -1.32706
C         46.23064        42.15196        -0.96692
C         47.55997        44.22602        -0.34941
C         46.26540        43.54951        -0.74787
C         47.52200        45.72649        -0.42490
C         46.33931        46.42388        -0.46486
C         47.59590        48.57727        -0.24394
C         46.33295        47.87639        -0.29515
C         47.59364        50.02286        -0.18293
C         46.39258        50.69870        -0.01207
C         47.67633        52.85908         0.21266
C         46.33489        52.20183        -0.00638
C         47.67647        54.24345         0.52876
C         46.46243        54.89735         0.91660
C         47.59421        57.09727         0.62018
C         46.57128        56.31429         1.42796
C         47.67505        58.54066         1.04487
C         46.49451        59.19318         1.40744
C         47.71869        61.35357         1.45687
C         46.49813        60.62448         1.54406
C         47.70572        62.76925         1.60378
C         46.47401        63.46037         1.71321
C         47.72843        65.63218         2.05767
C         46.44917        64.91346         1.71142
C         47.73840        67.12218         1.76847
C         46.48542        67.81584         1.57628
C         47.65343        70.01126         1.76051
C         46.45197        69.22250         1.45075
C         47.69105        71.43844         1.37987
C         46.48211        72.08283         1.04752
C         47.70687        74.20751         0.83769
C         46.48426        73.50087         0.77694
C         48.53582        38.19904         0.40313
C         49.97653        40.05273         0.00006
C         48.74424        39.43296        -0.25754
C         50.46101        41.25192        -0.59075
C         48.69670        42.31140        -1.56734
C         50.06488        44.24458        -0.68272
C         48.82902        43.64728        -0.95227
C         50.09038        45.68952        -0.49814
C         48.82122        46.41138        -0.07447
C         50.01759        48.61300        -0.66666
C         48.78450        47.88074        -0.37438
C         50.04320        50.06498        -0.45179
C         48.86302        50.73756        -0.23617
C         50.13163        52.86701         0.06309
C         48.87280        52.17788        -0.02170
C         50.12309        54.24844         0.33997
C         48.91534        54.95528         0.49835
C         50.08451        57.12359         0.39660
C         48.92761        56.39903         0.58619
C         50.10627        58.55794         0.54476
C         48.89961        59.24951         0.89362
C         50.17108        61.34136         1.03927
C         48.93914        60.65226         1.13909
C         50.20900        62.76380         1.40859
C         48.94080        63.52880         1.49665
C         50.14693        65.71884         1.14677
C         48.95258        64.89483         1.55649
C         50.26148        67.04006         1.91367
C         48.94383        67.80060         1.81337
C         50.22812        70.02869         1.87287
C         48.94823        69.26208         1.97551
C         50.18132        71.45673         1.51919
C         48.93072        72.13268         1.34741
C         50.16386        74.25555         1.07767
C         48.92961        73.55033         1.08362
C         51.38617        42.15001        -0.10542
C         52.53052        44.27421        -0.44678
C         51.35726        43.54262        -0.53665
C         52.55804        45.69810        -0.56516
C         51.28382        46.38405        -0.56933
C         52.57860        48.59468        -0.56046
C         51.30952        47.85645        -0.75244
C         52.59237        49.99738        -0.49923
C         51.32817        50.79405        -0.77206
C         52.60184        52.85367        -0.11159
C         51.37181        52.18757        -0.19828
C         52.65062        54.26589         0.15566
C         51.40518        55.00719         0.56965
C         52.59573        57.16245         0.06873
C         51.31869        56.38750        -0.07525
C         52.56553        58.55653         0.16721
C         51.32790        59.26610         0.44196
C         52.60749        61.40443         0.51320
C         51.36661        60.67152         0.68391
C         52.65962        62.79413         0.66907
C         51.49976        63.51836         1.20992
C         52.63118        65.67576         0.84761
C         51.46226        64.98148         1.09677
C         52.60935        67.15055         0.92473
C         51.47788        67.80375         1.39933
C         52.65424        70.02352         1.06839
C         51.51985        69.25717         1.59310
C         52.62683        71.42971         1.11054
C         51.39667        72.14404         1.31329
C         52.63204        74.28258         1.10098
C         51.38940        73.58279         1.16306
C         53.75172        46.41887        -0.54536
C         55.01702        48.56165        -0.52062
C         53.79062        47.85184        -0.51969
C         55.04303        49.95336        -0.48704
C         53.82868        50.68691        -0.41601
C         55.06292        52.82778        -0.20620
C         53.85587        52.14203        -0.28602
C         55.09550        54.26694        -0.09161
C         53.84074        54.97020         0.08797
C         55.03340        57.12561        -0.03383
C         53.84627        56.43405         0.06552
C         54.97532        58.55172        -0.50218
C         53.78061        59.30176         0.01728
C         55.02120        61.43496        -0.11771
C         53.80190        60.69100         0.12449
C         55.03131        62.81727        -0.00668
C         53.84770        63.54783         0.38372
C         55.07222        65.71961         0.24201
C         53.84025        64.95287         0.53507
C         55.05227        67.20925         0.22878
C         53.78520        67.90826         0.57437
C         55.02341        70.04717         0.30480
C         53.80111        69.30669         0.61297
C         55.01769        71.48612         0.52482
C         53.84514        72.16128         0.85605
C         55.09891        74.29889         0.98143
C         53.85227        73.60750         0.98881
C         56.35050        50.68721        -0.69347
C         57.56753        52.88395        -0.43221
C         56.36447        52.07325        -0.03485
C         57.55248        54.27343        -0.40250
C         56.30066        54.96639        -0.14552
C         57.51532        57.16474        -0.46205
C         56.35347        56.44035         0.17436
C         57.48181        58.57830        -0.58556
C         56.26709        59.30407        -0.40463
C         57.45024        61.40104        -0.76399
C         56.25547        60.70068        -0.41683
C         57.32416        62.87028        -1.10251
C         56.34288        63.55412        -0.14745
C         57.33295        65.76195        -1.02851
C         56.14198        65.01210        -0.52633
C         57.35132        67.26979        -0.96317
C         56.00998        67.97922        -0.68132
C         57.39326        70.18643        -0.49063
C         56.14597        69.40296        -0.17017
C         57.43409        71.51057         0.22282
C         56.27176        72.20086         0.48544
C         57.57003        74.29667         0.83828
C         56.31303        73.62334         0.81083
C         58.73575        55.03902        -0.64603
C         59.91298        57.19706        -1.01555
C         58.72150        56.45613        -0.71088
C         59.90548        58.58196        -1.09256
C         58.67357        59.29595        -0.91020
C         59.80336        61.47331        -1.61080
C         58.61805        60.70461        -1.06898
C         59.89265        62.83629        -0.89253
C         58.63037        63.64344        -1.07537
C         59.89949        65.77716        -1.32762
C         58.62249        65.00146        -1.08364
C         59.92746        67.20052        -0.80119
C         58.66667        67.99378        -0.90701
C         59.88602        69.98406        -0.14995
C         58.68972        69.39271        -0.40186
C         59.97531        71.33389         0.44803
C         58.70641        72.12327         0.62078
C         60.05991        74.19098         0.80249
C         58.78072        73.59302         0.75086
C         61.11710        59.35910        -1.32609
C         62.37075        61.45292        -1.84811
C         61.10120        60.70141        -1.51616
C         62.37730        62.90339        -1.40547
C         61.16092        63.59401        -1.20397
C         62.37500        65.67974        -0.89753
C         61.16408        64.99677        -1.05483
C         62.37416        67.06316        -0.29884
C         61.10360        67.83276        -0.56765
C         62.42955        69.96255        -0.10674
C         61.16254        69.34030        -0.63815
C         62.45134        71.30452         0.24957
C         61.25160        72.05676         0.41873
C         62.53817        74.14489         0.61168
C         61.26229        73.45829         0.64943
C         63.58063        63.61084        -1.39477
C         64.83125        65.72898        -1.02536
C         63.61164        64.99334        -1.06745
C         64.85593        67.13328        -0.83160
C         63.63698        67.84734        -0.55201
C         64.90774        69.93893        -0.32990
C         63.65763        69.21946        -0.30005
C         64.95233        71.31361        -0.01845
C         63.75409        71.95790         0.63740
C         64.99347        74.14003         0.42038
C         63.72760        73.46485         0.50390
C         66.06686        67.86077        -0.93273
C         67.31553        70.00335        -0.81387
C         66.10763        69.25258        -0.70266
C         67.34048        71.36721        -0.56951
C         66.15287        72.03641        -0.14320
C         67.44375        74.15685         0.11366
C         66.16704        73.46418         0.14503
C         68.62695        72.13422        -0.77807
C         68.58454        73.54153        -0.26052
O         42.94788        69.59023         2.08056
O         34.23779        52.13453         2.30072
O         51.13635        69.68484         2.97015
O         49.89505        41.62588        -1.81702
O         33.34654        69.86717         1.04783
O         55.64675        66.49738         1.37117
O         57.95874        67.82249        -2.19908
O         59.31572        71.40224         1.77179
O         34.54570        60.87174         2.27434
O         47.81159        42.04928        -2.67754
O         44.43171        37.28816         1.22174
O         38.68917        71.30957        -1.89745
O         44.59034        39.53649        -2.73009
O         48.15445        69.73552         3.12218
O         50.61715        48.24471        -2.01632
O         41.42254        60.02768         3.18359
O         56.24223        65.32791        -1.94170
O         42.26537        54.22107         2.97783
O         51.09085        63.03444         2.56009
O         41.92827        44.16605        -2.49332
O         57.29312        70.51935        -1.92467
H         57.10884        69.67021        -2.39505
O         45.70566        52.22491         2.30661
H         45.01871        52.48898         2.95466
O         31.14265        58.59810        -1.44992
H         30.55722        58.13549        -2.08666
O         42.07638        39.98067        -3.07128
H         42.90882        40.13213        -3.57538
O         40.31486        67.40606         2.44798
H         39.43229        67.15619         2.79619
O         34.26872        55.76153        -0.73978
H         34.37530        56.57938        -1.27235
O         51.51104        55.23727         2.00442
H         51.49158        54.36862         2.45684
O         48.89955        46.33568         1.40795
H         48.71987        45.38890         1.63730
O         24.23013        73.21889        -0.17193
H         23.35930        72.81592         0.03137
O         39.96870        46.12512        -2.48852
H         40.62478        45.52035        -2.91813
O         51.30567        50.95439        -2.23703
H         51.13302        50.04966        -2.59944
O         50.47456        66.76065         3.32038
H         50.65458        67.62363         3.76021
O         38.65223        56.52721         3.38933
H         38.31464        55.68014         3.77105
O         24.51668        71.98357        -3.63214
H         24.51254        71.08198        -4.01564
O         36.70347        60.23865        -0.58136
H         36.46142        61.05326        -1.07004
O         54.74956        58.44662        -1.97313
H         53.94980        57.89100        -2.09997
O         38.06994        65.29883        -1.19385
H         37.31221        65.73233        -1.64210
O         36.71013        51.44235         3.26307
H         35.81129        51.13941         3.52609
O         51.14611        56.16775        -1.51313
H         51.02009        57.04106        -1.93932
O         40.38336        60.86780        -0.15135
H         39.54615        61.14715        -0.58206
O         31.91745        71.52370        -3.17770
H         32.87511        71.62379        -3.40313
O         45.86509        52.62379        -1.31835
H         46.51403        52.32087        -1.98732
O         56.56696        50.81537        -2.10872
H         55.76366        51.20845        -2.50851
O         56.62290        56.52152         1.63426
H         57.51267        56.13537         1.78297
O         42.14858        69.04514        -1.45884
H         41.35875        68.91424        -2.02739
O         33.66300        55.27536         2.82768
H         33.57178        54.46904         3.37713
O         59.55605        61.76460        -3.02367
H         59.48734        60.90581        -3.49330
O         47.10687        57.10316        -0.75864
H         47.76738        57.57028        -1.31129
O         33.66495        63.49142         2.36530
H         33.85850        62.59245         2.72991
O         43.80293        48.23217        -2.15127
H         42.96496        47.84363        -2.48417
O         43.61813        63.47021         3.29539
H         44.33429        63.93221         3.77945
O         57.00839        63.54222         1.14955
H         56.42405        63.98404         1.80343
O         61.20695        69.64808        -2.07966
H         60.40811        69.25698        -2.49581
O         44.12909        37.01833        -2.38508
H         44.58870        37.65142        -2.98675
O         47.83358        65.55138         3.52270
H         48.73120        65.89182         3.76234
O         38.92504        60.91520         3.23614
H         38.09987        60.48462         3.56022
O         48.03527        39.44455        -2.54884
H         48.15457        40.23849        -3.12473
O         31.00840        59.05332         2.17328
H         31.64578        59.47741         2.78451
O         62.50792        61.45308        -3.28858
H         61.71984        61.91575        -3.65007
O         56.49915        51.81785         1.40622
H         56.44591        52.68292         1.86529
O         47.69476        43.90065         1.10919
H         46.84372        44.14171         1.53631
O         36.59643        69.48332         1.86693
H         35.67527        69.31097         2.16055
O         34.22846        59.07225        -0.95561
H         33.30560        59.04478        -1.30285
O         59.92136        65.96567        -2.78615
H         59.12879        66.51238        -3.01073
O         47.08792        56.22538         2.78881
H         46.42641        55.75000         3.33365
O         63.91806        71.69660         2.07691
H         64.72600        72.16971         2.36853
O         37.55786        54.06064         3.43001
H         37.37346        53.12121         3.69216
O         28.94398        63.52819         1.86646
H         28.09964        63.99923         2.03126
O         38.34437        56.74198        -0.25832
H         37.72888        57.24906        -0.82888
O         43.29569        66.67970        -0.93175
H         43.09031        67.51904        -1.41992
O         69.74012        71.42244        -0.21352
H         69.60393        71.36224         0.75393
O         55.34094        68.06211        -1.97242
H         55.47220        67.19212        -2.41951
O         33.37766        62.75371        -1.23222
H         32.67395        62.32697        -1.76508
O         34.59763        71.55669        -2.73965
H         35.49054        71.93128        -2.91398
O         62.35145        66.83427         1.16135
H         63.17320        66.35194         1.39494
O         43.18910        62.68863        -0.25587
H         42.47661        62.20340        -0.72532
O         36.42858        59.35248         2.96344
H         36.51068        58.48146         3.40816
O         49.86595        66.14142        -0.23499
H         49.74039        65.33764        -0.78212
O         59.95412        62.54408         0.54000
H         59.11644        62.84507         0.96057
O         56.80659        62.90083        -2.45099
H         57.54179        62.62212        -3.04257
H         23.10971        75.07936        -2.22508
H         25.66387        75.07927        -2.01043
H         28.12816        75.04329        -2.06822
H         30.55569        75.06593        -1.63109
H         32.99836        75.08436        -1.44015
H         35.45535        75.12557        -0.99843
H         37.92801        75.13622        -0.90924
H         40.41482        75.18096        -0.48482
H         42.85489        75.19288        -0.13797
H         45.28050        75.23621         0.26201
H         47.70915        75.29139         0.64908
H         50.15409        75.34689         0.93928
H         52.62126        75.38274         1.11780
H         55.10174        75.38762         1.14192
H         57.58547        75.38968         0.96635
H         60.12714        75.28047         0.94426
H         62.53915        75.24600         0.63211
H         65.01588        75.23463         0.53878
H         67.46223        75.20967         0.43481
H         22.15701        69.18186        -1.62026
H         20.94008        71.34392        -2.04168
H         21.02341        73.78739        -2.53710
H         24.59378        64.95742        -0.84015
H         23.37856        67.07179        -1.25859
H         27.05073        60.73848        -0.42393
H         25.81499        62.84787        -0.61152
H         29.50773        56.44366        -0.04103
H         28.29869        58.63066        -0.30206
H         31.78720        52.38065         0.02257
H         30.67077        54.32642         0.31414
H         34.32234        48.09381         0.03290
H         33.32020        50.19446        -0.30213
H         36.73528        43.80926        -0.37165
H         35.50624        45.93011        -0.10555
H         39.23242        39.55546        -0.31616
H         37.98491        41.68093        -0.43779
H         41.50207        35.28349        -0.23472
H         40.37797        37.47708        -0.30772
H         44.86044        32.24550         1.39452
H         42.79302        33.21674         0.43957
H         46.93795        33.57587         1.62157
H         48.16372        35.71663         1.30953
H         49.36892        37.78214         0.99067
H         50.58991        39.61367         0.80399
H         52.07174        41.87247         0.70966
H         53.47649        43.74492        -0.25957
H         54.70556        45.87075        -0.52178
H         55.96199        48.00054        -0.57011
H         57.20103        50.08673        -0.28698
H         58.51347        52.35442        -0.62183
H         59.67797        54.50530        -0.83959
H         60.85300        56.64608        -1.16895
H         62.07801        58.81989        -1.33251
H         63.25979        60.91132        -1.43843
H         64.52390        63.08736        -1.61003
H         65.77752        65.20264        -1.21952
H         66.99508        67.32745        -1.18684
H         68.24276        69.49055        -1.10895
H         68.82851        72.18549        -1.88694
H         69.53758        74.09116        -0.24293
