         657
 CSIRO Nanostructure Databank - Neutral Graphene Oxide Data Set
C          5.88420        31.63451         3.45515
C          5.88635        32.95932         3.72649
C          8.39743        27.91792         1.45969
C          8.02827        28.67852         2.52448
C          7.00072        29.69481         2.64256
C          8.32620        31.41471         4.13967
C          7.10321        30.84229         3.39005
C          8.36580        32.95793         4.01330
C          7.13544        33.68121         3.87909
C          8.30921        35.84480         3.92168
C          7.11307        35.07011         3.83313
C          8.26420        37.23444         3.89864
C         11.02959        24.40400        -0.86603
C         10.92122        25.67554        -0.17571
C          9.74829        26.08228         0.38562
C         10.97155        27.67711         2.04109
C          9.65512        27.13079         1.43822
C         11.03034        28.94391         2.81636
C          9.85861        29.45525         3.45264
C         10.91189        31.53818         4.00185
C          9.67299        30.79715         3.74939
C         10.85172        33.02912         4.33039
C          9.55162        33.70918         4.14732
C         10.78676        35.87942         4.05243
C          9.55787        35.13163         4.06707
C         10.75935        37.29593         3.94620
C          9.47728        38.07373         4.14100
C         10.64981        39.99178         3.01256
C          9.47137        39.33068         3.31046
C         10.69352        41.16535         2.19200
C         13.43309        20.79663        -3.32378
C         13.41172        22.04228        -2.46410
C         12.25690        22.59420        -1.99410
C         13.41205        24.80516        -1.56254
C         12.19258        23.91983        -1.39625
C         13.41607        26.06673        -0.67685
C         12.14043        26.50963         0.00601
C         13.54297        27.82168         1.82886
C         12.20603        27.43193         1.19127
C         13.48026        29.21467         2.41903
C         12.22539        29.71574         2.89754
C         13.37734        31.73837         3.72693
C         12.18880        30.98746         3.54216
C         13.35566        33.11484         4.08597
C         12.09604        33.79455         4.17474
C         13.30974        35.89623         3.86536
C         12.03854        35.17793         4.05597
C         13.25264        37.36028         3.69356
C         11.94250        38.03811         3.74314
C         13.16626        40.10931         3.20367
C         11.92699        39.39537         3.38624
C         13.09366        41.57329         2.82263
C         11.87619        41.87361         1.95956
C         13.08014        43.59601         0.62110
C         11.91244        42.85172         0.95112
C         13.10763        44.49211        -0.43741
C         15.81652        16.44943        -3.91360
C         15.85058        17.81297        -3.56504
C         14.65928        18.60634        -3.53004
C         15.94744        20.56499        -2.90089
C         14.68825        19.94751        -3.19862
C         15.98109        22.01067        -2.54028
C         14.69284        22.75939        -2.29045
C         15.95326        24.57483        -1.08627
C         14.68187        23.98033        -1.47694
C         15.99492        25.92082        -0.42379
C         14.69927        26.63496        -0.15015
C         15.93918        28.52767         0.96346
C         14.72816        27.63372         0.92636
C         15.93002        29.44620         2.15853
C         14.66655        29.89910         2.68531
C         15.83624        31.76574         3.80514
C         14.64104        31.13851         3.42818
C         15.84307        33.13742         4.18841
C         14.59522        33.83323         4.17357
C         15.80267        35.97872         4.21876
C         14.59991        35.25146         4.19190
C         15.77911        37.47400         4.21764
C         14.46545        38.16801         3.99882
C         15.63333        40.39948         3.59198
C         14.38762        39.55743         3.52489
C         15.57938        41.46408         2.50430
C         14.38818        42.01904         2.17197
C         15.58132        43.97489         1.03819
C         14.30207        43.30262         1.41562
C         15.56470        45.08523         0.03734
C         14.26550        45.34420        -0.74559
C         15.60657        46.64031        -2.39728
C         14.40841        46.05582        -2.01798
C         15.66211        47.54043        -3.52105
C         18.15858        12.16284        -4.75322
C         18.12965        13.51009        -4.20414
C         16.97955        14.29242        -4.28999
C         18.23573        16.26977        -3.52270
C         16.98677        15.66368        -3.90038
C         18.29832        17.65623        -3.28489
C         17.11483        18.43829        -3.28277
C         18.46835        20.53439        -2.79799
C         17.13145        19.83857        -2.96771
C         18.37688        21.79063        -1.96773
C         17.22594        22.50300        -1.88966
C         18.35041        24.15167        -0.24223
C         17.12975        23.66055        -0.95491
C         18.34533        25.43568         0.54916
C         17.11349        26.30004         0.50414
C         18.37333        28.11297         1.60817
C         17.20628        27.68678         0.97036
C         18.38070        29.34706         2.35005
C         17.12392        29.93981         2.66774
C         18.33997        31.64461         4.12929
C         17.05456        30.88180         3.84244
C         18.32087        33.11148         4.54436
C         17.05989        33.88295         4.36095
C         18.33522        36.06290         4.07133
C         17.04608        35.28845         4.32326
C         18.27175        37.58303         4.26948
C         17.04421        38.25522         4.01757
C         18.14388        40.48990         3.62888
C         16.94725        39.62187         3.68268
C         18.05359        41.69446         2.76998
C         16.87948        41.87707         1.84348
C         18.03661        43.95520         0.98514
C         16.85291        43.28478         1.29029
C         18.05346        45.04333         0.03632
C         16.84633        45.48850        -0.56301
C         18.09677        46.81170        -2.16286
C         16.84671        46.34723        -1.67818
C         18.16256        47.48177        -3.53088
C         16.85021        48.08144        -3.98688
C         18.05245        49.81677        -5.28509
C         16.87485        49.12234        -4.95605
C         18.06559        50.89653        -6.20799
C         20.70789         8.36889        -6.54372
C         20.62970         9.45962        -5.70188
C         19.25584         9.99266        -5.34420
C         20.47867        11.79467        -3.99874
C         19.27060        11.37990        -4.74875
C         20.47686        13.17889        -3.37923
C         19.31832        14.06521        -3.62456
C         20.60613        16.00919        -2.78048
C         19.39657        15.43308        -3.33879
C         20.70654        17.36437        -2.56789
C         19.65514        18.31167        -3.10945
C         20.83049        20.21334        -1.86745
C         19.50157        19.55779        -2.20455
C         20.87514        21.53536        -1.50071
C         19.66678        22.38258        -1.52683
C         20.88813        24.11790        -0.00818
C         19.67309        23.65166        -0.72236
C         20.85303        25.32271         0.74459
C         19.61922        26.05974         0.94540
C         20.80659        27.88826         2.09763
C         19.59929        27.32535         1.54407
C         20.84894        29.15118         2.68705
C         19.60493        29.88319         2.89756
C         20.88838        31.68351         4.16150
C         19.60690        31.03708         3.67763
C         20.78772        33.22660         3.92694
C         19.65547        33.84202         4.79092
C         20.88171        36.11391         4.45924
C         19.58505        35.38470         4.64201
C         20.88157        37.60799         4.22191
C         19.53934        38.34913         4.27804
C         20.83934        40.36260         3.45194
C         19.54110        39.81538         3.91805
C         20.96689        41.74199         3.24123
C         19.05568        42.62724         2.71791
C         20.50742        44.12744         1.27764
C         19.25632        43.56241         1.63257
C         20.54176        45.11616         0.24778
C         19.30331        45.56875        -0.37935
C         20.56724        46.91184        -2.09467
C         19.27167        46.47376        -1.47999
C         20.44011        48.33557        -2.67039
C         19.29909        48.47601        -3.64668
C         20.36817        50.56462        -4.59156
C         19.26311        49.52183        -4.51409
C         20.55364        51.01190        -6.06082
C         19.24339        51.58558        -6.56362
C         20.39963        53.46920        -7.70238
C         19.23096        52.73877        -7.35889
C         20.33339        54.68002        -8.37880
C         23.26206         6.00078        -7.95767
C         22.03205         6.61489        -7.70128
C         23.14667         8.25087        -6.25848
C         21.95658         7.74068        -6.84988
C         23.08546         9.39650        -5.41023
C         21.82569        10.01602        -5.13224
C         22.97287        11.75115        -3.80905
C         21.78657        11.17693        -4.30657
C         22.95700        13.04666        -3.14294
C         21.77202        13.77835        -3.03350
C         23.05028        15.76120        -2.21140
C         21.70840        15.08961        -2.29961
C         23.10561        17.15127        -1.95553
C         21.92539        17.96255        -2.06791
C         23.25643        19.91360        -1.43575
C         22.00071        19.34862        -1.79249
C         23.35009        21.34310        -1.06347
C         22.12807        22.19837        -1.05814
C         23.26718        23.89476         0.43667
C         22.09090        23.41164        -0.17963
C         23.27007        25.12152         1.14212
C         22.05235        25.81759         1.31192
C         23.31416        27.61978         2.64520
C         21.99891        27.02384         2.15397
C         23.34373        29.06414         2.96082
C         22.10968        29.75535         3.08824
C         23.34583        31.78245         3.72159
C         22.13225        31.10143         3.53139
C         23.34262        33.22971         3.97028
C         22.11885        33.95288         4.07839
C         23.33096        36.07379         3.88850
C         22.13215        35.35644         4.16841
C         23.31529        37.49587         3.60600
C         22.08536        38.22088         3.63476
C         23.25206        40.26305         2.87898
C         22.04018        39.59232         3.26754
C         23.21875        41.61510         2.43978
C         22.00030        42.33128         2.50116
C         23.08122        44.31624         1.40478
C         21.80738        43.70091         1.91902
C         23.03435        45.34921         0.35135
C         21.79323        45.71398        -0.16279
C         23.01079        47.50033        -1.52808
C         21.72829        46.84614        -1.11576
C         23.04796        48.32803        -2.77210
C         21.74238        48.77306        -3.32076
C         22.98096        50.64527        -4.51186
C         21.70127        50.08374        -4.02206
C         22.91845        51.67785        -5.57471
C         21.74988        51.93049        -6.23239
C         22.86450        53.90479        -7.31274
C         21.75872        52.87647        -7.40578
C         22.75389        55.10860        -8.01923
C         21.49410        55.48613        -8.62007
C         22.54465        57.52597        -9.46192
C         21.41600        56.68997        -9.32926
C         24.43303         6.48093        -7.37923
C         25.57636         8.11719        -5.91572
C         24.40372         7.61254        -6.51982
C         25.53780         9.25310        -5.07293
C         24.27640         9.90974        -4.82554
C         25.42920        11.59968        -3.45697
C         24.23264        11.08894        -4.02615
C         25.42710        12.86397        -2.77267
C         24.20216        13.61712        -2.69176
C         25.47453        15.57688        -1.86628
C         24.22560        14.97572        -2.23402
C         25.53912        16.94307        -1.63175
C         24.36962        17.76097        -1.68462
C         25.75390        19.88471        -1.39776
C         24.42938        19.15575        -1.42811
C         25.77747        21.09379        -0.50255
C         24.49602        21.71579        -0.18210
C         25.78413        23.66516         0.80749
C         24.48288        23.05443         0.50456
C         25.78600        25.00736         1.35950
C         24.52806        25.69067         1.62459
C         25.81596        27.50938         2.73442
C         24.55361        26.92336         2.25493
C         25.82143        28.92654         3.29757
C         24.56078        29.71476         3.26801
C         25.75043        31.65934         4.41433
C         24.58583        31.08310         3.61631
C         25.86965        33.23951         4.34435
C         24.56506        33.92698         3.95633
C         25.76479        36.04139         3.46331
C         24.55676        35.34648         3.78908
C         25.77762        37.44699         3.30026
C         24.53347        38.17774         3.32187
C         25.72490        40.30771         2.81572
C         24.52220        39.58510         2.98650
C         25.72780        41.68987         2.41405
C         24.44359        42.32262         2.10947
C         25.56556        44.45015         1.49761
C         24.36684        43.60658         1.61302
C         25.54950        45.55626         0.52213
C         24.28972        45.97300        -0.06047
C         25.49608        47.85799        -1.24584
C         24.27872        47.00591        -0.99676
C         25.47029        48.67417        -2.52913
C         24.31101        49.01757        -3.13002
C         25.44021        50.91419        -4.33100
C         24.30269        49.90843        -4.36231
C         25.32023        52.12591        -5.08343
C         24.12739        52.45437        -5.77793
C         25.19370        54.49455        -6.67169
C         24.06003        53.60619        -6.60429
C         25.08417        55.67055        -7.45210
C         23.88385        55.99995        -8.10252
C         23.74644        57.20458        -8.85982
C         26.71111         9.75232        -4.47114
C         27.83895        11.33052        -2.97058
C         26.68539        10.90228        -3.63326
C         27.84704        12.49005        -2.02365
C         26.61890        13.35315        -2.21051
C         28.03642        15.33829        -1.48241
C         26.66329        14.71035        -1.68691
C         28.07240        16.82181        -1.60941
C         26.82947        17.55048        -1.23188
C         28.23165        19.69972        -0.99951
C         26.92569        19.01145        -1.03712
C         28.24627        20.97874        -0.42122
C         26.96531        21.63137        -0.05825
C         28.23691        23.51278         0.98159
C         26.94482        22.92437         0.59134
C         28.24154        24.98573         1.22121
C         26.99581        25.65631         1.62841
C         28.29488        27.61912         2.49389
C         27.08301        26.93982         2.25124
C         28.28646        28.95671         3.06951
C         27.11744        29.63518         3.35902
C         28.38570        31.74257         4.05447
C         27.14478        30.85916         4.28519
C         28.27599        33.16764         3.64578
C         27.08191        33.82443         3.64639
C         28.26196        36.03792         3.00534
C         26.99182        35.25443         3.22338
C         28.23827        37.51310         3.03964
C         27.01677        38.17179         3.13221
C         28.27475        40.34531         2.80025
C         27.01296        39.67304         3.30120
C         28.24074        41.86268         2.75704
C         26.91030        42.43091         2.31262
C         28.17365        44.61182         1.61763
C         26.88508        43.86531         1.97358
C         28.03554        45.57532         0.44733
C         26.77875        46.05816         0.02691
C         28.03593        47.68407        -1.56192
C         26.74473        47.02763        -1.09235
C         27.97261        48.95165        -2.29682
C         26.76273        49.16718        -3.16141
C         27.75837        51.45238        -3.76427
C         26.63087        50.57478        -3.70430
C         27.66004        52.63159        -4.48271
C         26.46230        52.99495        -5.18097
C         26.37211        54.16639        -5.95521
C         29.14718        13.25780        -2.17265
C         30.50642        15.32244        -1.83019
C         29.26533        14.60634        -1.89591
C         30.61042        16.71711        -1.58588
C         29.37797        17.54049        -1.74540
C         30.71960        19.54679        -0.95235
C         29.46025        19.06634        -1.61926
C         30.73712        20.97142        -0.59238
C         29.47618        21.63393        -0.21990
C         30.79995        23.69830         0.53197
C         29.52418        22.86703         0.57180
C         30.77575        24.79274         1.62545
C         29.53530        25.65770         1.48077
C         30.77277        27.62961         2.14007
C         29.55330        26.99148         2.11928
C         30.78883        29.02139         2.66038
C         29.63622        29.50266         3.53779
C         30.87331        31.82120         3.30475
C         29.67792        31.03491         3.73388
C         30.85077        33.19123         3.24385
C         29.57734        33.90074         3.52589
C         30.80277        36.11049         3.02044
C         29.55911        35.37796         3.32709
C         30.72870        37.50609         2.92491
C         29.49082        38.21030         2.94606
C         30.72714        40.32056         2.39397
C         29.47292        39.65713         2.77690
C         30.75285        41.82476         2.29491
C         29.41897        42.46994         2.01898
C         30.58969        44.38815         1.00077
C         29.38182        43.71642         1.46767
C         30.52266        45.66017         0.42539
C         29.24567        46.19274         0.00417
C         30.41468        48.13607        -1.01263
C         29.24971        47.31548        -0.84844
C         30.29148        49.37078        -1.70702
C         29.08769        49.77803        -2.34076
C         29.06895        51.10046        -3.09039
C         31.80077        17.35468        -1.21373
C         33.10001        19.32391        -0.35952
C         31.87674        18.75880        -0.86600
C         33.22391        20.67020         0.04076
C         32.05319        21.56806        -0.10997
C         33.23001        23.39835         1.03275
C         32.05176        22.84845         0.63606
C         33.30082        24.82277         1.57322
C         32.02012        25.61283         1.47436
C         33.14260        27.68019         0.93936
C         31.98240        26.97613         1.58781
C         33.40557        28.96442         2.88546
C         32.09384        29.71141         2.80765
C         33.23273        31.82194         2.45590
C         32.21048        31.11971         3.35920
C         33.31059        33.29961         2.77871
C         32.06640        33.97340         3.00091
C         33.27051        36.12476         2.75783
C         32.04393        35.39423         2.96466
C         33.27376        37.54587         2.72483
C         32.00293        38.30185         3.02528
C         33.14625        40.12307         1.62725
C         31.89814        39.63250         2.32466
C         33.07332        41.58659         1.21748
C         31.87815        42.36961         1.46265
C         33.07778        44.44074         0.78747
C         31.85153        43.70330         1.06011
C         32.97999        45.80520         0.40636
C         31.73422        46.39051         0.11200
C         31.64474        47.66970        -0.49304
C         34.41496        21.26663         0.50373
C         35.71356        23.31222         0.99860
C         34.49440        22.65590         0.87751
C         35.81546        24.78004         1.38052
C         34.50744        25.46349         0.86186
C         35.75401        27.64049         1.54713
C         34.55483        27.02716         0.80655
C         35.79446        28.92734         2.02470
C         34.59388        29.69526         2.37240
C         35.71393        31.84832         1.83450
C         34.54585        31.06086         2.35833
C         35.80094        33.22445         2.52030
C         34.49527        33.99372         2.56241
C         35.69311        36.16788         2.33279
C         34.49817        35.42656         2.56273
C         35.68888        37.56687         2.34771
C         34.46340        38.26004         2.54882
C         35.66854        40.40376         1.90465
C         34.40701        39.77567         2.47742
C         35.65139        41.67190         1.37856
C         34.40492        42.38920         1.05819
C         34.31551        43.82949         1.03384
C         37.00671        25.58753         0.91984
C         38.23373        27.69966         1.16287
C         37.00741        26.93160         1.20761
C         38.29950        28.99536         1.60917
C         37.10636        29.64143         2.28209
C         38.22681        31.84108         1.86458
C         37.03923        31.12514         1.95584
C         38.22813        33.27898         1.81004
C         36.93452        33.97916         1.86618
C         38.20668        36.18892         1.86969
C         36.91584        35.47271         1.87998
C         38.16694        37.58780         1.98475
C         36.93922        38.29533         2.11757
C         36.90044        39.68030         1.95706
C         39.51123        29.76724         1.54443
C         40.70407        31.93445         1.62057
C         39.50307        31.13998         1.72799
C         40.66807        33.29827         1.60698
C         39.41663        34.02281         1.69399
C         39.39464        35.44652         1.72651
O         10.24541        26.59619         2.67747
O         36.62439        34.70094         0.64009
O         26.77217        18.11478         0.12760
O         28.94690        25.70367         0.13955
O         11.94808        27.95820        -0.14144
O         22.12841        48.11046        -0.49944
O         27.37328        46.55961        -2.29749
O         17.34321        25.36668         1.61950
O         20.24916        35.94386         5.79145
O         27.32753        14.82229        -0.33505
O         29.37175        31.48368         5.10156
O         22.47219        44.75830         2.68381
O         22.40288        51.12184        -3.24026
O         31.29090        29.87389         1.58641
O         22.47069        26.81247         3.53073
O         15.47195        22.89385        -3.60110
O         18.84681        40.62479         4.89906
O         13.40056        36.52157         2.49146
O         25.22387        31.36532         5.68927
O         28.97407        22.67628         1.95699
O         20.42797        38.27004         5.45006
O         25.78398        27.76405         4.18831
O         14.83645        44.37635         2.26055
O         33.66477        41.78743        -0.09501
O         16.35671        25.85583        -1.82797
O         28.58414        17.18302        -2.93983
O         34.93299        27.39193        -0.55876
O         29.67369        34.82363         4.68784
O         31.61841        21.76830        -1.49518
O         17.46994        23.17121         0.39450
O         18.25001        32.04375         5.54500
O         14.06085        27.17208        -1.39509
O         20.00768        42.62050         3.73706
O         23.13595        22.30509        -2.15073
O         27.55225        35.45973         1.86164
O         20.19821        11.97172        -2.56669
O         22.47618        47.70702        -4.00179
O         33.50642        27.91197         3.50576
O         14.99503        38.01151         5.36347
O         10.91316        32.04926         5.41409
O          8.81000        28.56518         3.68709
O         19.85646        23.70803        -2.17663
O         14.70833        46.18315         0.40078
O         26.08368        44.72484         2.86361
O         24.19908        21.79684         1.24763
O         33.46571        24.74310         3.01460
H         32.58504        24.48392         3.38872
O         19.93400        51.69120        -3.80221
H         20.74811        52.10771        -3.43040
O         16.85063        29.98733         4.98336
H         17.09663        30.49941         5.78850
O         13.35443        25.26552        -2.94115
H         13.98667        26.01999        -3.00627
O         18.92626        19.11457        -0.95149
H         19.51485        18.43341        -0.56241
O         24.48310        49.08784        -5.53729
H         25.32265        48.58289        -5.40082
O         20.80972        45.94090        -3.15064
H         21.55693        46.27804        -3.71182
O         36.20660        33.01420         3.89518
H         35.51420        32.48809         4.35002
O         25.54338        48.83295        -0.15246
H         24.62716        49.13562         0.02911
O         18.37277         9.91922        -6.46682
H         18.71266        10.51223        -7.16743
O          8.12679        31.14022         5.55090
H          8.95862        31.40167         6.00971
O         34.35507        25.01059        -0.49894
H         34.67378        25.74083        -1.08596
O         27.76857        11.97978        -0.63880
H         27.68778        12.77429        -0.06046
O         12.94557        42.32681         4.05355
H         13.78879        42.21898         4.55563
O         29.86157        28.90210         4.83235
H         29.13431        29.23574         5.41695
O         27.35598        30.20688         5.55057
H         26.49212        30.33306         6.04888
O         30.88576        24.35016        -0.74979
H         31.13108        23.66211        -1.41413
O         32.13218        38.66391         4.46017
H         31.28726        39.07843         4.74184
O         26.05061        33.66833         5.71792
H         25.67900        32.90470         6.25284
O         30.08606        51.10195        -4.10273
H         30.93062        50.82169        -3.69478
O         35.44975        32.09478         0.41987
H         35.60830        31.26109        -0.07086
O         26.00009        20.32607        -2.76727
H         25.27163        20.92937        -3.03022
O         34.25406        40.33354         3.79847
H         33.56484        39.80273         4.27605
O         27.03595        39.90395         4.75766
H         27.29577        40.85123         4.88754
O         33.23030        39.32636         0.41922
H         33.52423        39.93393        -0.30156
O         13.68084        26.89343         2.95789
H         14.49021        27.13268         3.45863
O         17.06627        40.95538         0.70318
H         16.29935        41.06048         0.10141
O         19.95676        33.58516         6.17060
H         20.42088        34.38006         6.53388
O         20.15775        18.67048        -4.41928
H         19.69159        19.48896        -4.71689
O         18.92058        20.96589        -4.11378
H         18.32813        21.68460        -4.42195
O         21.04441        31.34688         5.55142
H         20.33139        31.79728         6.06800
O         18.54846        35.92370         2.61587
H         17.71975        36.17936         2.15697
O         15.93460        29.38487        -0.23764
H         15.42044        28.92100        -0.93542
O         30.81969        24.19733         2.94298
H         30.09147        23.52226         2.99377
O         13.36308        21.25186        -4.69230
H         14.05791        21.94359        -4.79413
O         37.33954        29.57511         3.72680
H         38.20575        29.99854         3.90634
O         32.71670        31.82150         1.09975
H         33.44954        32.12378         0.51253
O         15.54006        41.15018         4.85416
H         15.65541        40.50361         5.58561
O         28.51939        45.45287         2.75962
H         27.66576        45.66782         3.20842
O         32.94878        28.65322         0.21878
H         34.33288        28.14413        -0.80560
O          9.44360        38.47371         5.57119
H         10.15087        39.14119         5.70227
O         20.37456        33.41603         2.54835
H         21.11723        33.15939         1.96249
O         18.43809        46.39851        -4.47407
H         19.29785        45.99243        -4.18871
O         36.00242        24.79385         2.81755
H         35.15064        24.56474         3.26289
O         22.06992        52.02092        -8.57263
H         23.00637        51.74020        -8.48449
O         29.52249        19.59749        -2.98063
H         29.00513        18.98468        -3.55334
O         20.84458        49.81744        -6.82848
H         21.06697        50.10679        -7.74124
O         26.93895        48.31938        -4.35837
H         27.85187        48.45892        -4.68961
O         31.06189        42.23544         3.70425
H         31.22601        43.20459         3.68884
O         28.37402        42.26935         4.17056
H         29.34445        42.22660         4.37678
O         32.70093        31.15075         4.70640
H         31.96898        30.90742         5.31370
O         20.13126        49.22716        -1.57709
H         19.97462        50.12417        -1.94489
O         21.33427        14.74833        -0.90736
H         21.88225        13.98324        -0.62977
H          4.93596        31.12513         3.22622
H          4.94748        33.53089         3.74421
H          7.83517        27.97477         0.51728
H          6.05491        29.52801         2.09998
H          6.14906        35.59021         3.73141
H          7.29080        37.73862         3.79955
H         10.13491        23.76134        -0.86397
H          8.83503        25.49352         0.20275
H          8.50888        39.75541         2.98927
H          9.77612        41.46840         1.66273
H         12.52524        20.17063        -3.13417
H         11.31125        22.03690        -2.09182
H         10.99008        43.05024         0.38219
H         12.21130        44.59409        -1.06903
H         14.85724        15.98507        -4.18675
H         13.70048        18.12842        -3.78215
H         13.52357        46.16440        -2.66392
H         14.70841        47.88049        -3.95518
H         17.25345        11.79746        -5.26245
H         16.04965        13.85214        -4.67974
H         15.92314        49.44104        -5.41055
H         17.11028        51.21512        -6.65534
H         19.78320         7.96274        -6.98005
H         18.82608         9.30055        -4.56464
H         18.25787        53.13951        -7.68735
H         19.35147        55.07414        -8.68447
H         23.30249         5.12526        -8.62075
H         21.11324         6.22095        -8.15848
H         22.45465        58.45904       -10.03578
H         20.46098        56.99097        -9.78338
H         25.39375         5.98696        -7.58330
H         26.54022         7.62265        -6.10748
H         25.94761        56.34774        -7.53280
H         24.60981        57.87946        -8.94949
H         27.66591         9.23180        -4.63704
H         28.77359        10.76649        -3.11176
H         28.53553        53.29311        -4.55737
H         27.23645        54.84525        -6.00930
H         30.04117        12.68908        -2.47023
H         31.43632        14.73388        -1.86824
H         31.17792        50.02026        -1.77877
H         29.31060        51.91749        -2.34104
H         32.71286        16.74802        -1.10562
H         33.97923        18.66704        -0.27922
H         33.90234        46.37041         0.20715
H         32.56035        48.25808        -0.65135
H         35.34482        20.67656         0.48742
H         36.64301        22.72901         0.88967
H         36.60184        42.14332         1.08021
H         35.22341        44.43662         1.15865
H         37.94645        25.08528         0.63990
H         39.14169        27.20652         0.78071
H         39.10219        38.16360         1.91137
H         37.82806        40.21308         1.69494
H         40.44713        29.26099         1.26141
H         41.66656        31.40860         1.53554
H         41.60119        33.87408         1.52200
H         40.35305        35.98599         1.68103
