         762
 CSIRO Nanostructure Databank - Neutral Graphene Oxide Data Set
C         22.80512        24.82396        -1.97967
C         21.70368        25.69078        -2.19638
C         22.92004        27.87687        -2.01922
C         21.73835        27.07908        -2.22619
C         22.92274        29.17001        -1.39682
C         21.70319        29.79657        -1.00347
C         22.90285        31.77561        -0.22427
C         21.69314        31.04273        -0.43751
C         22.88132        33.09864         0.31577
C         21.62133        33.77718         0.57217
C         22.78577        35.87089         1.10927
C         21.55914        35.07423         0.94190
C         22.72587        37.27179         1.65254
C         21.45527        37.96483         2.00252
C         22.66644        40.11548         2.27120
C         21.43664        39.29014         2.22600
C         22.66614        41.57152         1.93204
C         21.46652        42.28487         1.40888
C         22.63153        44.42650         1.80082
C         21.47146        43.62640         1.32357
C         22.67825        45.90318         1.63940
C         21.52901        46.61078         1.31649
C         22.63804        48.75330         1.51518
C         21.53535        48.03496         1.19421
C         25.42174        23.49521        -1.13347
C         25.35395        24.77136        -1.76425
C         24.11739        25.20929        -2.29195
C         25.40759        27.87769        -1.93262
C         24.17827        27.35637        -2.36956
C         25.40302        29.17795        -1.40606
C         24.16021        29.84624        -1.16736
C         25.35532        31.88173        -0.35373
C         24.14323        31.17617        -0.60167
C         25.33083        33.09217         0.35580
C         24.09667        33.75868         0.60788
C         25.24150        35.79715         1.40348
C         24.08313        35.13303         1.10753
C         25.27210        37.07578         2.21515
C         23.97264        37.87975         2.23897
C         25.26216        40.10262         2.16831
C         23.97745        39.37825         2.36153
C         25.25310        41.52980         1.93302
C         23.97292        42.22770         1.51606
C         25.19965        44.46200         1.82236
C         23.94964        43.69281         1.93337
C         25.14374        45.87787         1.86255
C         23.92494        46.59174         1.83597
C         25.12547        48.78068         1.33498
C         23.90021        48.11098         2.02193
C         25.27179        50.26352         1.63858
C         27.86730        23.59705        -0.83744
C         26.58299        22.90370        -0.72203
C         27.89900        24.88690        -1.61173
C         26.61155        25.55040        -2.04512
C         27.96837        27.80893        -1.88871
C         26.65999        27.08495        -2.17271
C         27.96999        29.23531        -1.46332
C         26.67008        29.94635        -1.39230
C         27.94388        32.13192        -0.71784
C         26.62952        31.37617        -0.92885
C         27.89260        33.18143         0.35571
C         26.60013        33.69805         0.80025
C         27.76354        35.96136         1.05028
C         26.54968        35.10590         1.34858
C         27.72458        37.28425         1.78900
C         26.51874        37.92660         2.01463
C         27.71520        40.09648         1.92022
C         26.45068        39.36711         2.16160
C         27.71162        41.58446         1.76326
C         26.42151        42.28704         1.83030
C         27.65808        44.43735         1.59264
C         26.42906        43.74196         1.74667
C         27.69618        45.88042         1.61425
C         26.43953        46.60825         1.93817
C         27.69643        48.82669         1.45347
C         26.42071        48.09769         1.75976
C         27.59234        50.17696         0.76415
C         26.41689        50.91531         1.37937
C         30.31849        20.64533        -0.78899
C         29.20697        21.37389        -0.50626
C         30.42295        23.44769        -1.19255
C         29.19121        22.83366        -0.66818
C         30.39563        24.85377        -1.61815
C         29.16151        25.66861        -1.50358
C         30.46440        27.78485        -1.55466
C         29.20971        27.03280        -1.62234
C         30.42574        29.16121        -1.33967
C         29.16372        29.88039        -1.17722
C         30.35481        31.85088        -0.24580
C         29.18867        31.24883        -0.63755
C         30.38510        33.05498         0.68727
C         29.09254        33.85873         0.69607
C         30.32229        36.03189         1.07460
C         29.06990        35.19052         1.12190
C         30.29630        37.20917         2.05633
C         28.98363        37.92884         2.20743
C         30.24304        40.22884         2.39531
C         28.96955        39.43193         2.37480
C         30.19193        41.66120         2.00320
C         28.99356        42.32368         1.85833
C         30.06426        44.38685         1.09209
C         28.92402        43.73340         1.52386
C         29.98378        45.79799         0.68673
C         28.85828        46.56239         1.27367
C         30.11003        48.72262         0.64569
C         28.95698        48.03275         1.25559
C         30.12563        50.12345         0.50617
C         28.92939        50.89118         0.70175
C         30.09660        52.97344         0.18128
C         28.96530        52.30114         0.57546
C         32.82537        19.07084        -1.34435
C         32.77108        20.49493        -1.18078
C         31.59616        21.26244        -1.06879
C         32.85969        23.43528        -1.34823
C         31.60863        22.71586        -1.21231
C         32.91908        24.80507        -1.51689
C         31.71532        25.59721        -1.80670
C         32.94387        27.74729        -1.52446
C         31.73749        27.08191        -1.64082
C         33.01570        29.22283        -1.42713
C         31.68044        29.94746        -1.34017
C         32.93253        32.04762        -0.45441
C         31.64654        31.33809        -0.76841
C         32.88397        33.28054         0.36806
C         31.65725        33.89800         0.64380
C         32.82843        35.96742         1.35328
C         31.60873        35.25015         1.08581
C         32.82651        37.34382         1.77887
C         31.57836        37.99068         2.22668
C         32.76286        40.25795         1.90698
C         31.56471        39.50009         2.38489
C         32.73953        41.60410         1.61886
C         31.47934        42.37191         1.83183
C         32.52650        44.28721         0.45633
C         31.38995        43.77922         1.27568
C         32.47428        45.68973        -0.11148
C         31.21266        46.48883         0.16234
C         32.61567        48.63728         0.14501
C         31.34125        47.94248         0.47689
C         32.56644        50.11323        -0.06211
C         31.36081        50.79446         0.10486
C         32.66311        52.99555        -0.33700
C         31.31018        52.24070        -0.17867
C         32.73534        54.45218        -0.09692
C         35.30469        19.03080        -1.44441
C         34.00954        18.38042        -1.45645
C         35.32266        20.40466        -1.25684
C         34.07644        21.16723        -1.01734
C         35.38245        23.38571        -1.22574
C         34.09960        22.68126        -1.07341
C         35.43372        24.74623        -1.33833
C         34.20766        25.51485        -1.63221
C         35.54932        27.78699        -1.52232
C         34.22727        27.02059        -1.69248
C         35.43110        29.15170        -0.84547
C         34.26725        29.87047        -0.91839
C         35.45119        31.90300         0.08763
C         34.30080        31.40240        -0.77731
C         35.41058        33.23677         0.62915
C         34.16903        34.07535         0.37512
C         35.24509        35.90768         1.84099
C         34.05980        35.30619         1.22336
C         35.26638        37.37464         1.92858
C         34.05181        38.05103         1.87927
C         35.28762        40.27446         1.56366
C         34.04375        39.53138         1.96742
C         35.16990        41.63848         1.03332
C         33.92341        42.31081         1.09604
C         34.89768        44.20242        -0.19926
C         33.83176        43.62558         0.54760
C         34.92319        45.62618        -0.63038
C         33.76229        46.36249        -0.43607
C         34.96501        48.60038        -0.74137
C         33.70040        47.85198        -0.53607
C         35.06340        50.02016        -0.28520
C         33.81556        50.81160        -0.24099
C         35.17213        52.89558        -0.25348
C         33.89791        52.20498        -0.21065
C         35.19969        54.36463         0.00803
C         33.91004        55.08325         0.06247
C         37.88001        16.22967        -1.91279
C         36.64112        16.92133        -1.77064
C         37.85112        18.98555        -1.30012
C         36.56662        18.28259        -1.55187
C         37.89400        20.45852        -1.49210
C         36.57714        21.16430        -1.41207
C         37.93081        23.30277        -1.05347
C         36.60724        22.59785        -1.01241
C         37.87333        24.76775        -1.15355
C         36.68868        25.44947        -1.21592
C         37.79928        27.54130        -0.26985
C         36.60340        26.89847        -0.86759
C         37.81953        29.01657        -0.13796
C         36.66644        29.75801        -0.33182
C         37.82509        31.70606         0.69268
C         36.63061        31.14044         0.13407
C         37.74468        32.99947         1.35377
C         36.52540        33.79346         1.24567
C         37.83355        35.86963         2.17884
C         36.52836        35.12137         1.92303
C         37.83595        37.43829         2.01605
C         36.54113        38.06265         1.59942
C         37.72382        40.29581         0.93433
C         36.49829        39.49345         1.17551
C         37.61481        41.54628         0.37275
C         36.26334        42.15973         0.29101
C         37.85017        44.23936        -1.20571
C         35.97438        43.32078        -0.45106
C         37.66689        45.71376        -1.09803
C         36.27305        46.36875        -0.88623
C         37.21337        48.70245        -1.55312
C         36.19650        47.86726        -1.06148
C         37.49065        50.04513        -1.18560
C         36.37784        50.75303        -0.50834
C         37.56936        52.88761        -1.01707
C         36.33352        52.21354        -0.56583
C         37.65038        54.36739        -0.79752
C         36.48636        55.12110        -0.20255
C         37.65404        57.21598        -0.81381
C         36.50979        56.57787        -0.50490
C         40.43560        14.78673        -2.28360
C         40.37161        16.15726        -2.12982
C         39.12040        16.84205        -1.83567
C         40.43860        19.04710        -1.58882
C         39.18084        18.25684        -1.43503
C         40.42955        20.44161        -1.44297
C         39.18604        21.19068        -1.34320
C         40.45325        23.32087        -1.69014
C         39.18357        22.56426        -1.33155
C         40.43749        24.78986        -1.24007
C         39.14171        25.51455        -1.05385
C         40.35910        27.58672        -0.37663
C         39.09480        26.73467        -0.13121
C         40.35215        28.86457         0.42277
C         39.03169        29.60313         0.45876
C         40.31585        31.69579         0.93119
C         39.06015        31.04326         0.70462
C         40.34145        33.07501         1.23961
C         39.08800        33.70711         1.64830
C         40.34400        35.68332         2.18642
C         39.09371        35.14287         1.94157
C         40.30746        37.82324         2.12219
C         39.04629        38.23770         1.73196
C         40.30482        40.38556         1.08282
C         38.99548        39.66169         1.32665
C         40.23863        41.71446         0.39251
C         38.88222        42.29912         0.05811
C         40.25351        44.25512        -0.67749
C         38.93080        43.56016        -0.74227
C         40.23316        45.70941        -0.99850
C         38.97456        46.39389        -1.35896
C         40.24598        48.48142        -1.66967
C         39.11161        47.63948        -1.89947
C         40.11367        49.93722        -1.26132
C         38.76531        50.71232        -1.39756
C         40.04701        52.88892        -1.52359
C         38.81486        52.10184        -1.24405
C         40.17909        54.29797        -1.11249
C         38.98633        55.02073        -0.66463
C         40.21706        57.19760        -1.18511
C         38.97703        56.55445        -0.71250
C         40.23507        58.48079        -1.72036
C         42.87672        14.71973        -2.20425
C         41.67696        14.07923        -2.29553
C         42.95818        16.17954        -2.31254
C         41.61642        16.95019        -2.24676
C         42.91132        19.02905        -1.67951
C         41.66697        18.36111        -1.81102
C         42.92666        20.42475        -1.34126
C         41.67823        21.16253        -1.32045
C         42.86974        23.28073        -0.83677
C         41.66602        22.55724        -1.22042
C         42.89373        24.76693        -0.83672
C         41.66370        25.43460        -0.74588
C         42.84537        27.62180        -0.33251
C         41.62864        26.77674        -0.04965
C         42.83274        28.97851        -0.00459
C         41.60613        29.63739         0.39797
C         42.79267        31.76542         0.68130
C         41.56856        31.00570         0.69044
C         42.76253        33.15622         0.88146
C         41.55714        33.82802         1.20098
C         42.72422        36.05877         1.53915
C         41.57323        35.20790         1.62098
C         42.70912        37.48342         1.59009
C         41.55355        38.32167         1.62126
C         42.79959        40.27096         0.73601
C         41.59145        39.64284         1.08570
C         42.79869        41.59228         0.13711
C         41.46698        41.98553        -0.50000
C         42.76302        44.18175        -1.05401
C         41.44929        43.42299        -1.15029
C         42.75485        45.57110        -1.52318
C         41.45612        46.34604        -1.57908
C         42.70536        48.51644        -1.56191
C         41.46738        47.82687        -1.53106
C         42.65503        49.98091        -1.64549
C         41.38680        50.66179        -1.64437
C         42.65727        52.82029        -1.52602
C         41.36302        52.10630        -1.79960
C         42.68538        54.27324        -1.20900
C         41.39991        55.01819        -1.14292
C         42.72179        57.21224        -1.11568
C         41.42902        56.42493        -1.13341
C         42.63901        58.41211        -2.03609
C         41.44835        59.03103        -2.24686
C         45.42425        16.21577        -1.87009
C         44.19554        16.91030        -1.95392
C         45.41445        19.01968        -1.58910
C         44.17215        18.31333        -1.76432
C         45.39574        20.43101        -1.41411
C         44.16352        21.09999        -1.21255
C         45.43113        23.30827        -0.99288
C         44.18805        22.52427        -0.84520
C         45.37736        24.77651        -1.09097
C         44.10248        25.48361        -0.85431
C         45.39129        27.75316        -0.62939
C         44.05087        26.95846        -0.80563
C         45.30622        29.02356         0.08510
C         44.08439        29.69162         0.18525
C         45.25734        31.77330         0.83037
C         44.05349        31.08753         0.56410
C         45.28430        33.19712         0.87588
C         44.00951        33.92453         0.75984
C         45.30838        36.03560         1.36548
C         44.00089        35.41619         1.09674
C         45.29398        37.46645         1.74182
C         43.99017        38.24269         1.65720
C         45.23894        40.31895         0.91859
C         44.04873        39.64573         1.14300
C         45.27944        41.45629        -0.09658
C         43.98685        42.23861        -0.18086
C         45.22054        44.28229        -1.08629
C         43.98538        43.57749        -0.76569
C         45.23378        45.62095        -1.51077
C         43.99798        46.35154        -1.54964
C         45.12409        48.47197        -2.02612
C         43.90462        47.76228        -1.65635
C         45.10913        49.98320        -2.12054
C         43.85491        50.68652        -1.81784
C         45.18115        52.82822        -1.64787
C         43.89065        52.16298        -2.09872
C         45.18711        54.27173        -1.47808
C         43.96787        55.00250        -1.38479
C         45.21447        57.07904        -1.35076
C         43.98135        56.40131        -1.32875
C         46.60930        16.87543        -1.61390
C         47.87222        18.94636        -1.12044
C         46.65110        18.28720        -1.47276
C         47.97067        20.40053        -1.24193
C         46.64592        21.20158        -1.41589
C         47.87893        23.35795        -0.83417
C         46.64060        22.65439        -1.10320
C         47.91205        24.74164        -0.65883
C         46.71499        25.53510        -1.02101
C         47.94144        27.66613        -0.23451
C         46.70357        27.01739        -0.73851
C         47.81841        28.90656         0.60283
C         46.49167        29.56132         0.80362
C         47.74461        31.77629         1.62290
C         46.38471        30.95820         1.43165
C         47.76918        33.11454         0.76898
C         46.49052        33.90795         0.93810
C         47.78625        36.05793         1.00352
C         46.48904        35.33062         1.11073
C         47.80418        37.54226         1.28768
C         46.56036        38.25632         1.68217
C         47.80663        40.39944         0.95348
C         46.53367        39.77400         1.35699
C         47.84604        41.61137         0.21795
C         46.53971        42.31493        -0.03112
C         47.81141        44.13184        -1.35680
C         46.52410        43.65019        -0.71578
C         47.83532        45.50781        -2.02643
C         46.49771        46.27738        -2.02129
C         47.42960        48.58560        -2.50139
C         46.40937        47.77054        -2.07118
C         47.56525        49.98572        -2.13835
C         46.39142        50.69348        -1.93032
C         47.62843        52.76343        -1.23362
C         46.35156        52.09927        -1.58852
C         47.68568        54.23196        -1.40277
C         46.42789        54.96989        -1.45272
C         46.41137        56.37940        -1.40263
C         50.16912        18.93664        -0.27294
C         49.01480        18.26589        -0.63211
C         50.24467        20.36764        -0.24991
C         49.12542        21.09464        -0.66281
C         50.30857        23.25018         0.01793
C         49.03303        22.53815        -0.38985
C         50.33640        24.72133        -0.06139
C         49.12083        25.43174        -0.21591
C         50.35228        27.50581         0.28631
C         49.15936        26.83807        -0.02360
C         50.32720        28.98777         0.46310
C         49.05474        29.69900         0.81318
C         50.27712        31.75467         1.55477
C         49.01584        30.98792         1.23860
C         50.23962        33.20602         1.14040
C         49.04622        33.90417         1.06515
C         50.28884        36.06447         1.25205
C         49.06649        35.33514         1.09768
C         50.33303        37.49292         1.38084
C         49.08850        38.21836         1.58828
C         50.34857        40.36752         1.03362
C         49.05697        39.76789         1.37366
C         50.32795        41.84697         0.71757
C         49.05583        42.27447        -0.00981
C         50.40526        44.10555        -1.15494
C         49.09200        43.45581        -0.90280
C         50.44170        45.33806        -1.91970
C         49.21887        46.13211        -2.16431
C         50.44039        48.39615        -2.36758
C         49.36183        47.42950        -2.61286
C         50.21595        49.71679        -1.68672
C         48.89267        50.48535        -1.62488
C         50.18868        52.73420        -1.36676
C         48.92814        51.96004        -1.23981
C         50.13735        54.10408        -1.41955
C         48.91690        54.84325        -1.45849
C         52.71084        20.35904         0.27912
C         51.49984        21.05831         0.08032
C         52.79698        23.15163         0.13520
C         51.56293        22.47297         0.05773
C         52.81357        24.62204        -0.05162
C         51.56096        25.40136         0.08205
C         52.86410        27.47100         0.56126
C         51.59373        26.80623         0.26710
C         52.85708        28.87386         0.97165
C         51.61171        29.65528         0.81672
C         52.74348        31.69228         1.59304
C         51.58481        31.05412         1.27815
C         52.81002        33.16183         1.44787
C         51.52193        33.92493         1.12414
C         52.76909        36.05375         1.44919
C         51.53855        35.37713         1.30089
C         52.79723        37.48985         1.41690
C         51.55511        38.20827         1.37720
C         52.79988        40.40100         1.13908
C         51.51612        39.65555         1.19484
C         52.81068        41.67986         0.38789
C         51.60990        42.28860         0.05306
C         52.86659        43.81581        -1.41000
C         51.57763        43.43452        -0.81145
C         52.91736        44.97021        -2.36525
C         51.64165        45.69748        -2.53224
C         52.90663        48.63525        -2.35128
C         51.68120        47.97654        -2.71497
C         52.82615        49.91025        -1.73389
C         51.50698        50.49178        -1.39641
C         52.76821        52.71790        -1.39379
C         51.48421        52.01577        -1.23270
C         53.91551        21.02928         0.44268
C         55.27385        23.15126         0.54176
C         53.99980        22.43715         0.35680
C         55.32559        24.54116         0.46482
C         54.13207        25.35087         0.12306
C         55.28873        27.37111         1.08684
C         54.05631        26.76231         0.55484
C         55.24413        28.79579         1.56068
C         53.97941        29.51904         1.41868
C         55.20902        31.65667         2.27119
C         53.89856        30.86415         2.10950
C         55.18392        33.18760         2.30391
C         53.97742        33.93225         1.87260
C         55.27465        36.03048         1.69279
C         54.00006        35.31317         1.68877
C         55.27830        37.46694         1.45481
C         54.06315        38.16501         1.39894
C         55.34872        40.28997         0.86348
C         54.08770        39.64358         1.29249
C         55.35113        41.57220         0.33486
C         54.09574        42.23319        -0.01590
C         55.40720        43.88670        -1.39814
C         54.12182        43.35911        -0.81079
C         55.36050        45.36754        -1.79475
C         54.22034        45.70368        -2.47027
C         55.33027        48.51232        -1.94137
C         54.13608        47.99667        -2.49408
C         55.28874        49.91217        -1.61865
C         54.02849        50.61433        -1.52999
C         53.95330        52.05280        -1.39608
C         57.69318        23.10058         1.08367
C         56.49034        22.45096         0.84032
C         57.81492        24.50394         1.00279
C         56.61376        25.23402         0.59216
C         57.80809        27.37585         1.36613
C         56.61105        26.74729         0.76433
C         57.79951        28.85343         1.43355
C         56.49396        29.61250         1.50281
C         57.73538        31.68154         2.00313
C         56.50474        31.00202         1.98675
C         57.78340        33.15329         2.20824
C         56.49090        33.93206         2.25895
C         57.75583        35.96511         1.35438
C         56.46972        35.34551         1.83909
C         57.76264        37.46384         1.49579
C         56.55103        38.16887         1.40496
C         57.78840        40.29167         1.03295
C         56.57707        39.59119         1.11454
C         57.84819        41.61402         0.47989
C         56.61136        42.23357         0.03408
C         57.84495        44.17399        -0.95480
C         56.61429        43.45757        -0.62110
C         57.73998        45.63984        -1.23159
C         56.56271        46.23384        -1.67979
C         57.72887        48.45962        -1.69310
C         56.53168        47.71634        -1.81236
C         57.70308        49.87511        -1.54339
C         56.52589        50.57512        -1.41699
C         60.26745        24.61704         1.38057
C         59.01154        25.22869         1.35713
C         60.10424        27.31915         2.37564
C         58.94223        26.66417         1.63474
C         60.13578        28.83507         2.27903
C         59.01145        29.55806         1.85947
C         60.31211        31.66810         1.84452
C         58.97008        30.98191         1.89009
C         60.27181        33.17177         2.00307
C         59.05400        33.87355         1.92524
C         60.25049        35.99470         1.76644
C         59.03465        35.27473         1.77650
C         60.23861        37.44569         1.58901
C         59.01698        38.14005         1.52192
C         60.34927        40.34222         1.31952
C         59.01445        39.61264         1.48294
C         60.32523        41.71308         0.74407
C         59.08581        42.26558         0.28113
C         60.37900        44.34297        -0.34543
C         59.15446        43.53724        -0.46920
C         60.31681        45.78383        -0.69187
C         58.97090        46.43479        -1.02111
C         60.21855        48.42772        -1.79932
C         59.01600        47.79683        -1.57511
C         61.45563        25.38514         1.58290
C         61.41540        26.68599         1.98700
C         61.23704        29.57634         2.83763
C         61.30494        30.93198         2.71840
C         61.47133        33.89864         2.01018
C         61.45869        35.28661         1.94828
C         61.46773        38.14920         1.35218
C         61.52425        39.49442         1.13179
C         61.49928        42.44531         0.67267
C         61.50487        43.78911         0.20618
C         61.51980        46.46549        -1.17432
C         61.46209        47.73576        -1.66367
O         28.62673        48.73888         2.54022
O         55.23449        27.69750         2.53263
O         24.22578        26.25768        -3.22904
O         38.34996        32.97801         2.68791
O         38.02721        48.18629        -2.56233
O         49.34760        22.80081         1.03784
O         41.41540        41.01698        -1.51912
O         37.76803        36.77295         3.30360
O         47.59127        27.77880        -1.64715
O         32.37075        48.19847         1.52148
O         44.95982        49.18891        -3.34965
O         36.40057        38.43211         0.15031
O         44.57669        37.86338         2.95655
O         58.71752        43.43788        -1.88639
O         28.80121        38.57737         3.51920
O         47.82451        32.15142         2.96528
O         47.03104        28.60865         1.80242
O         36.70221        27.01026         0.59595
O         23.85679        38.49933         3.55021
O         32.17101        44.53178        -0.94400
O         26.51064        31.06369        -2.36396
O         30.98564        25.08038        -2.95578
O         40.43477        45.22855         0.38498
O         46.61504        39.23201         2.72247
O         33.98177        48.41489        -1.85877
O         43.95022        34.93495        -0.30207
O         49.35400        49.62404        -0.51629
O         52.89058        43.59828        -2.91490
O         48.35489        48.02247        -3.35684
O         49.07278        39.13076         2.69733
O         30.14596        46.15462        -0.76708
O         34.09378        21.97644         0.22841
O         39.14463        55.81307         0.54226
O         22.85649        37.05964         0.20402
O         35.99380        50.20698         0.81609
O         27.44690        24.81966        -3.00261
O         37.17104        46.05972         0.25749
O         38.55930        18.52335        -0.11576
O         32.19177        32.31653        -1.72729
O         31.01617        40.01584         3.62677
O         51.10900        29.64552        -0.59260
O         36.09956        54.72071         1.13743
O         39.81494        25.64706        -2.34964
O         46.51932        43.53908         0.76835
O         57.26101        33.66359         3.48671
O         28.60331        23.64364         0.42874
O         53.59991        25.05889        -1.21524
O         32.42442        29.88855        -2.59949
O         34.95557        40.09368         2.97491
O         31.85402        52.62235        -1.49400
O         48.41673        43.12050        -2.20427
O         22.60184        41.16212         3.31772
O         46.11396        25.22112        -2.30043
O         37.30847        22.86061         0.23828
O         59.51872        46.44981         0.35603
O         52.43693        33.49869         0.04722
O         39.57053        28.84317         1.63211
O         36.70991        43.54412        -1.60367
O         51.72532        46.76467        -3.43440
O         40.56854        52.64054        -2.89097
O         31.00799        37.13122         3.30245
O         40.42576        36.78011         3.03802
O         39.67798        42.70326         1.27307
O         42.79290        53.23183        -0.14251
O         57.19546        29.44016         0.22053
O         42.31642        16.72430        -3.51163
O         54.17931        46.84569        -3.27387
O         27.45846        27.58922        -3.26935
O         31.69667        43.54630         2.68753
O         39.68716        40.44692         2.39538
O         37.20857        20.89277        -2.72403
O         59.69577        40.24197         2.62384
O         34.27349        26.23879        -2.93858
O         53.49023        40.37442         2.43683
O         55.10490        32.41114         3.53576
O         56.79805        26.20452        -0.54969
O         48.21807        52.24659         0.00699
O         46.99787        45.57307        -3.21521
O         27.79228        40.66661         0.57185
O         26.46140        47.52699         3.10101
O         44.69007        27.69758        -1.89603
O         43.48338        22.79086         0.42081
O         23.14946        43.99212         3.10698
O         51.49383        51.10181        -0.08043
O         47.75339        37.06483        -0.09543
O         41.96521        45.75620        -2.78890
O         37.34972        53.87338        -2.13211
O         26.67476        34.01069         2.27041
O         47.52519        20.91435        -2.54616
O         35.65034        35.15857         3.09074
O         53.49879        30.47242         3.45660
H         53.73666        31.21540         4.05971
O         60.81963        31.48383         0.46783
H         60.72471        30.53320         0.24322
O         43.81879        52.31155        -3.54837
H         44.26889        51.54503        -3.96488
O         34.33437        34.56212        -1.01318
H         34.41159        33.76214        -1.59531
O         45.41906        40.77138        -1.38793
H         44.53230        40.45208        -1.66473
O         27.58796        36.32848        -0.36091
H         28.43753        36.73964        -0.65781
O         50.34801        31.88561         3.01425
H         49.39679        32.04031         3.32431
O         34.64392        31.88690        -2.11226
H         33.86855        31.67670        -2.68869
O         30.42577        32.42319         2.01590
H         30.38449        33.13243         2.69338
O         25.44736        36.55325         3.56741
H         25.15369        37.26305         4.18677
O         59.89580        27.02246         3.80141
H         59.97859        26.05229         3.91686
O         39.11309        26.19328         1.20576
H         38.19699        26.25545         1.56737
O         30.28892        36.73071        -0.24889
H         30.59286        36.09006        -0.92981
O         45.84636        30.73712         2.75050
H         46.45998        31.25012         3.35762
O         42.85769        57.76976         0.23795
H         42.00825        58.20568         0.46310
O         40.16866        49.86776         0.21969
H         41.01892        49.45292         0.48187
O         40.52995        23.31091        -3.14634
H         40.05505        24.11058        -3.47137
O         50.28698        42.56801         1.99302
H         49.58907        42.16205         2.55111
O         41.23119        43.22397        -2.55937
H         41.32609        42.23223        -2.68904
O         36.05392        28.09386        -2.84306
H         35.58956        27.50492        -3.48337
O         28.17361        32.91218        -1.93404
H         27.78386        32.39292        -2.67887
O         57.71716        35.72561        -0.11238
H         56.98238        36.26058        -0.48348
O         47.83321        32.68384        -0.61285
H         47.85268        33.47470        -1.19198
O         23.96300        48.39940         3.43855
H         24.81053        48.01685         3.77754
O         24.94286        48.57961        -0.07941
H         25.68818        49.03223        -0.55231
O         23.97242        42.18925         0.05774
H         24.88000        42.37652        -0.26350
O         55.57304        43.16753        -2.67390
H         54.68616        43.15417        -3.11593
O         41.70704        26.50962         1.37587
H         40.80449        26.27715         1.70606
O         27.25554        49.88048        -0.63941
H         27.31495        50.71698        -1.14856
O         40.39463        28.06567        -1.73056
H         40.41907        27.29232        -2.34742
H         22.61285        23.84865        -1.50945
H         20.70338        25.23046        -2.15763
H         20.76557        27.59277        -2.22901
H         20.75238        29.26930        -1.15559
H         20.72833        31.47425        -0.14401
H         20.68027        33.22988         0.43324
H         20.58437        35.56284         1.07687
H         20.51468        37.39545         1.99801
H         20.48868        39.79815         2.45526
H         20.58683        41.70665         1.09031
H         20.59696        44.14851         0.91018
H         20.58162        46.08215         1.14714
H         22.61152        49.85157         1.46572
H         20.61609        48.54029         0.86577
H         24.47769        22.94552        -1.00647
H         24.42623        50.80252         2.09218
H         26.54929        21.93074        -0.21503
H         26.50228        51.98559         1.61954
H         30.27697        19.55224        -0.68205
H         28.29145        20.86542        -0.17504
H         30.05438        54.05845         0.02162
H         28.04925        52.88112         0.75792
H         31.88395        18.50624        -1.40915
H         31.80063        55.02943        -0.08115
H         33.96719        17.29025        -1.58725
H         33.92877        56.16309         0.26622
H         37.82109        15.16344        -2.17221
H         35.72163        16.33569        -1.91142
H         37.62037        58.28010        -1.08883
H         35.56008        57.13199        -0.52056
H         39.51473        14.18843        -2.25398
H         39.30905        59.06419        -1.80818
H         43.79098        14.13278        -2.04233
H         41.64472        12.98087        -2.26911
H         43.56868        58.85862        -2.41699
H         41.39760        59.96494        -2.82473
H         45.45011        15.12919        -2.02477
H         45.23411        58.17414        -1.26865
H         47.53930        16.29394        -1.56347
H         47.35367        56.94183        -1.36879
H         51.02903        18.34500         0.06681
H         48.99829        17.17078        -0.54487
H         51.06877        54.68518        -1.45200
H         48.99537        55.93458        -1.55047
H         52.71775        19.26156         0.30986
H         52.77517        53.81504        -1.44606
H         54.82118        20.43255         0.61341
H         54.88289        52.63719        -1.42962
H         58.56888        22.49733         1.36296
H         56.47631        21.35567         0.91297
H         58.65284        50.40996        -1.41178
H         56.55667        51.64608        -1.17968
H         60.36791        23.55828         1.10568
H         60.24047        49.45600        -2.18572
H         62.42442        24.90180         1.38950
H         62.34762        27.25218         2.12467
H         62.01405        29.03316         3.39479
H         62.16072        31.48024         3.13857
H         62.43185        33.36780         2.06368
H         62.41588        35.82208         1.99159
H         62.39027        37.56785         1.22226
H         62.45425        39.94305         0.75410
H         62.43476        42.02058         1.06075
H         62.42723        44.37863         0.30063
H         62.46440        45.90421        -1.20600
H         62.37945        48.23221        -2.00964
