         618
 CSIRO Nanostructure Databank - Neutral Graphene Oxide Data Set
C         22.91706        70.05323         1.30095
C         23.01754        71.49935         0.84919
C         21.85188        72.14884         0.41371
C         23.09881        74.17132        -0.03703
C         21.89146        73.48159        -0.00915
C         25.52383        65.76201         1.18185
C         25.49919        67.15990         1.13948
C         24.24682        67.91448         1.05069
C         25.46111        70.03428         1.27967
C         24.20053        69.27245         1.11256
C         25.48597        71.53674         1.30625
C         24.23263        72.21304         0.88430
C         25.55196        74.23001         0.25244
C         24.29107        73.54516         0.39128
C         27.96936        61.48443         1.10447
C         27.94295        62.86788         1.32789
C         26.76422        63.62996         1.23111
C         27.96690        65.78774         1.46867
C         26.75002        65.05561         1.32161
C         27.97835        67.19091         1.28214
C         26.73494        67.85572         1.14241
C         27.97402        70.04548         0.72705
C         26.69831        69.30173         0.88980
C         28.00056        71.49439         0.82498
C         26.82109        72.31073         1.27203
C         28.00726        74.31708         0.35568
C         26.76815        73.64540         0.55175
C         30.32682        57.11476         0.75598
C         30.35705        58.52538         0.89186
C         29.17453        59.31090         0.94834
C         30.42451        61.38094         1.32942
C         29.18539        60.72612         1.12421
C         30.50862        62.80673         1.69745
C         29.18672        63.55548         1.75344
C         30.54492        65.78755         1.68020
C         29.21940        65.06072         1.77208
C         30.55647        67.31953         1.56514
C         29.22199        67.94263         1.17475
C         30.47351        70.02530         0.67749
C         29.23616        69.29039         0.85512
C         30.47307        71.40133         0.41519
C         29.17390        72.13332         0.15833
C         30.47294        74.26958         0.24161
C         29.23505        73.63044         0.32871
C         32.70309        52.75434         0.39694
C         32.69837        54.18909         0.38540
C         31.51690        54.93836         0.57851
C         32.78332        57.05063         0.61346
C         31.52416        56.35841         0.66199
C         32.83837        58.48362         0.79413
C         31.62920        59.18141         1.00301
C         32.97878        61.38628         1.27101
C         31.64290        60.59760         1.35903
C         32.94133        62.85731         1.10069
C         31.76438        63.57347         1.43341
C         32.89735        65.65728         0.81337
C         31.75838        64.99643         1.31523
C         32.81247        67.06101         0.24918
C         31.68725        67.89704         0.76597
C         32.92309        69.96058         0.22071
C         31.70431        69.27043         0.57362
C         32.92220        71.38296         0.11947
C         31.69328        72.10433         0.21261
C         32.92545        74.21995        -0.02314
C         31.70013        73.54412         0.12576
C         35.17242        48.45735         0.41477
C         35.13981        49.85869         0.36060
C         33.91694        50.59122         0.41920
C         35.12703        52.66199        -0.16581
C         33.87322        51.98931         0.24871
C         35.15869        54.18781        -0.18235
C         33.93094        54.90644         0.22318
C         35.22547        57.00555         0.11067
C         33.95774        56.29545         0.37601
C         35.28184        58.48797         0.25446
C         34.07047        59.21242         0.68097
C         35.31569        61.33779         0.49091
C         34.13440        60.62169         0.77725
C         35.34734        62.77135         0.42750
C         34.12268        63.52329         0.69772
C         35.28708        65.65022         0.16066
C         34.09833        64.94035         0.55099
C         35.31045        67.05972         0.11961
C         34.12456        67.80836         0.23437
C         35.37037        69.94218        -0.10026
C         34.13689        69.22793         0.12799
C         35.37041        71.36549        -0.19500
C         34.14637        72.08800        -0.07470
C         35.39278        74.20349        -0.26347
C         34.15276        73.52142        -0.12909
C         37.70851        44.23692        -0.17130
C         37.66084        45.63298         0.08833
C         36.43327        46.32962         0.22059
C         37.63947        48.45291         0.47200
C         36.40252        47.73355         0.37817
C         37.62693        49.88502         0.41721
C         36.39763        50.57692         0.25914
C         37.63636        52.66154        -0.14393
C         36.41262        51.96678         0.00588
C         37.65756        54.11556        -0.22917
C         36.47639        54.82873        -0.08626
C         37.67682        57.01983        -0.28843
C         36.52449        56.26697         0.34213
C         37.73733        58.47350        -0.04026
C         36.61206        59.14661         0.33538
C         37.85214        61.35746         0.18640
C         36.59930        60.61529         0.48934
C         37.73981        62.70433        -0.47635
C         36.50892        63.43907         0.01955
C         37.75594        65.55679        -0.63074
C         36.46771        64.86928        -0.24689
C         37.83449        67.02289        -0.35908
C         36.59959        67.77785        -0.01736
C         37.78943        69.92875        -0.50175
C         36.59320        69.24299        -0.22920
C         37.80563        71.34197        -0.54353
C         36.59986        72.06375        -0.37906
C         37.85485        74.19399        -0.46988
C         36.60644        73.51040        -0.37874
C         40.21647        39.99983        -0.76596
C         40.16970        41.39747        -0.47776
C         38.95123        42.11067        -0.44006
C         40.16789        44.18985         0.02491
C         38.93420        43.50835        -0.20502
C         40.21080        45.69252        -0.03706
C         38.88414        46.36228         0.22371
C         40.13946        48.45503         0.61480
C         38.87891        47.74152         0.45566
C         40.08453        49.92987         0.90497
C         38.85122        50.61183         0.37614
C         40.17039        52.63146        -0.31134
C         38.86388        51.96242         0.04226
C         40.14787        54.13830        -0.21359
C         38.94241        54.80911        -0.27418
C         40.24174        57.00966        -0.50843
C         38.95462        56.27131        -0.50994
C         40.26385        58.39971        -0.52331
C         38.96426        59.17182        -0.59876
C         40.36564        61.30137        -0.29778
C         39.10646        60.56086        -0.03527
C         40.30462        62.76019        -0.48853
C         39.07145        63.45873        -0.44856
C         40.27801        65.58072        -0.80259
C         39.05565        64.84798        -0.61712
C         40.26887        66.99580        -0.97290
C         38.95011        67.73821        -1.08551
C         40.18220        69.91459        -1.38037
C         39.10681        69.18293        -0.57119
C         40.22971        71.37789        -1.01348
C         39.06863        72.05359        -0.73183
C         40.30964        74.20058        -0.66828
C         39.06755        73.51341        -0.62450
C         42.75637        35.87629        -1.73834
C         42.71300        37.26357        -1.47440
C         41.47612        37.92652        -1.27827
C         42.68517        39.98916        -0.76152
C         41.43352        39.28873        -0.92217
C         42.62581        41.32019        -0.12038
C         41.38061        42.09072        -0.15708
C         42.63342        44.18372         0.42779
C         41.38518        43.47937         0.12661
C         42.63612        45.61254         0.67732
C         41.29892        46.28010         0.85745
C         42.59648        48.49030         0.87575
C         41.33721        47.78804         0.73423
C         42.61065        49.91747         0.82510
C         41.38048        50.64235         0.63801
C         42.58433        52.75042         0.35662
C         41.38407        52.00084         0.32890
C         42.60088        54.09448        -0.06204
C         41.40976        54.82964        -0.30963
C         42.68471        56.96000        -0.67894
C         41.46294        56.25977        -0.50638
C         42.72408        58.37738        -0.78242
C         41.50502        59.11722        -0.66028
C         42.75467        61.24200        -0.96230
C         41.55457        60.53779        -0.71737
C         42.74053        62.68739        -0.99771
C         41.52246        63.42947        -0.79551
C         42.72146        65.56248        -1.18808
C         41.50726        64.85510        -0.90857
C         42.68492        66.97951        -1.26076
C         41.47614        67.70843        -1.15011
C         42.68420        69.88309        -1.14170
C         41.49978        69.17820        -1.21774
C         42.74310        71.32458        -1.15165
C         41.47975        72.11199        -1.41601
C         42.76250        74.17449        -0.82206
C         41.52403        73.53291        -0.90760
C         45.25151        33.14808        -2.25638
C         44.03394        33.79681        -2.12442
C         45.20729        35.95321        -1.85281
C         43.98062        35.20527        -1.90170
C         45.17512        37.34996        -1.66528
C         43.94618        38.01525        -1.44099
C         45.14219        40.26536        -1.23684
C         43.89770        39.40721        -1.09735
C         45.17568        41.47361        -0.32865
C         43.90936        42.05829         0.14508
C         45.09632        44.18170         0.61732
C         43.85250        43.51211         0.36826
C         45.05791        45.54996         1.26406
C         43.80000        46.31647         0.92170
C         45.05370        48.47798         1.08812
C         43.81699        47.76687         0.99054
C         45.04321        49.90386         1.06371
C         43.84421        50.61690         0.89462
C         45.09252        52.82426         0.62746
C         43.80043        52.13128         1.00517
C         45.12668        54.10033         0.16726
C         43.89712        54.74267        -0.33701
C         45.23381        56.90499        -0.78277
C         43.93397        56.18442        -0.76196
C         45.20768        58.31684        -1.24524
C         43.94887        59.09627        -1.04531
C         45.21917        61.22098        -1.62883
C         43.96482        60.48740        -1.16062
C         45.20891        62.70071        -1.33916
C         43.95516        63.41254        -1.25589
C         45.19198        65.53100        -1.79743
C         43.93514        64.81915        -1.35617
C         45.18773        66.98292        -1.40936
C         43.92110        67.75928        -1.61219
C         45.22336        69.88243        -1.18463
C         43.95864        69.10470        -0.88825
C         45.21772        71.28941        -1.09754
C         43.95333        72.00527        -1.05733
C         45.21326        74.12965        -0.96103
C         43.98755        73.45995        -0.97188
C         46.45924        33.85753        -2.15707
C         47.68374        35.95975        -1.76048
C         46.46527        35.25082        -1.95486
C         47.70676        37.34790        -1.57019
C         46.44929        38.13147        -1.81610
C         47.60737        40.12847        -0.90448
C         46.43794        39.49031        -1.18768
C         47.62620        41.62812        -0.69864
C         46.33250        42.17225        -0.13371
C         47.54180        44.14925         0.87350
C         46.28629        43.49714         0.45604
C         47.53402        45.62441         1.03525
C         46.34898        46.32979         1.12510
C         47.53637        48.49408         1.26005
C         46.32373        47.77423         1.20421
C         47.59510        49.91542         1.12435
C         46.31749        50.64866         1.23564
C         47.62509        52.78149         0.67217
C         46.34285        52.14692         1.03588
C         47.63038        54.14794         0.32621
C         46.35543        54.96302         0.36334
C         47.70230        56.88756        -0.62660
C         46.38352        56.23607        -0.47717
C         47.78988        58.33751        -1.02485
C         46.51923        59.07129        -1.32658
C         47.65575        61.23237        -0.88067
C         46.50614        60.54157        -1.19048
C         47.66391        62.69156        -0.94893
C         46.42954        63.38989        -1.23761
C         47.66265        65.50963        -1.24476
C         46.46084        64.82087        -1.36372
C         47.72471        66.95802        -1.53774
C         46.40065        67.73345        -1.62115
C         47.67193        69.86311        -1.39988
C         46.43263        69.18608        -1.38417
C         47.68003        71.29719        -1.31228
C         46.44531        72.00255        -1.16917
C         47.68318        74.12061        -1.11549
C         46.45737        73.43914        -1.08612
C         48.89220        38.04335        -1.28942
C         50.08531        40.12863        -0.76775
C         48.89647        39.43784        -0.99446
C         50.11473        41.47431        -0.23598
C         48.86169        42.10857         0.00941
C         50.11388        44.16065         0.62329
C         48.82977        43.39673         0.71697
C         50.09988        45.63248         0.86490
C         48.82082        46.28073         1.29441
C         50.07660        48.51368         1.25712
C         48.81210        47.79811         1.47567
C         50.06488        49.85694         0.96904
C         48.81380        50.59414         0.95176
C         50.05736        52.73360         0.58572
C         48.83307        52.03543         0.72889
C         50.05031        54.13948         0.47545
C         48.85093        54.83789         0.27463
C         50.20228        56.93619        -0.23217
C         48.83618        56.35112         0.23895
C         50.15893        58.44944        -0.21548
C         48.98755        59.11585        -0.60913
C         50.08849        61.26406        -0.29616
C         48.91780        60.53935        -0.57615
C         50.04298        62.75480        -0.09502
C         48.84032        63.40607        -0.73162
C         50.10116        65.53388        -0.73617
C         48.87999        64.82673        -0.89108
C         50.06909        67.00720        -0.68657
C         48.89453        67.73376        -1.15306
C         50.17377        69.83630        -1.31228
C         48.90947        69.12643        -1.27866
C         50.15028        71.27069        -1.78794
C         48.89834        72.00687        -1.38655
C         50.16013        74.11253        -1.26396
C         48.91458        73.42453        -1.26977
C         51.33759        42.07615         0.11287
C         52.61035        44.21537         0.71329
C         51.37827        43.37058         0.88539
C         52.60901        45.60401         0.97208
C         51.37025        46.30462         1.13822
C         52.65227        48.46564         1.45519
C         51.33859        47.73417         1.44596
C         52.59766        49.95586         1.25642
C         51.36877        50.49055         0.50831
C         52.63657        52.77788         0.56800
C         51.35059        52.01450         0.43962
C         52.58564        54.21516         0.95582
C         51.26043        54.92781         0.79958
C         52.42914        57.13118         1.18374
C         51.29372        56.35396         0.60073
C         52.51381        58.54965         0.64924
C         51.32736        59.18205         0.12224
C         52.55567        61.33109        -0.01094
C         51.31470        60.59771        -0.03675
C         52.55220        62.71938        -0.31901
C         51.35179        63.45106        -0.41119
C         52.61346        65.59312        -0.68737
C         51.35472        64.85601        -0.60529
C         52.62952        66.98064        -0.82113
C         51.39083        67.77489        -0.72078
C         52.67005        69.76872        -1.66364
C         51.36449        69.16960        -1.18048
C         52.67652        71.30400        -1.62900
C         51.42588        72.01945        -1.48542
C         52.61410        74.15646        -1.05451
C         51.40088        73.42710        -1.31437
C         53.84879        46.33018         1.03918
C         55.12441        48.44357         1.15929
C         53.92186        47.73582         1.18415
C         55.18027        49.92246         0.87711
C         53.89586        50.67097         1.15900
C         55.09289        52.82013         1.01052
C         53.93144        52.10962         0.81201
C         55.10243        54.27961         0.98662
C         53.83255        55.00849         0.90338
C         54.97048        57.13017         1.33446
C         53.74855        56.36984         1.02855
C         54.92276        58.64441         1.29887
C         53.68755        59.27528         0.77588
C         55.02927        61.28829         0.25699
C         53.77612        60.63876         0.30456
C         55.12026        62.59872        -0.39556
C         53.82541        63.37644        -0.66314
C         55.08696        65.52688        -0.62637
C         53.88224        64.85864        -0.69097
C         55.08678        66.99484        -0.43313
C         53.85576        67.74818        -0.78365
C         55.00238        69.90781        -0.39376
C         53.85681        69.11494        -0.97059
C         55.11456        71.37327        -0.71818
C         53.97534        72.09762        -1.24150
C         54.99773        74.21792        -0.42245
C         53.84274        73.53117        -0.89669
C         56.37073        50.71645         1.35183
C         57.53805        52.88005         1.47945
C         56.34866        52.10471         1.29622
C         57.54540        54.28238         1.38553
C         56.28372        54.96927         1.17025
C         57.47184        57.14480         1.65450
C         56.29038        56.46611         0.99520
C         57.43370        58.66739         1.66019
C         56.20787        59.36601         1.21316
C         57.48784        61.44356         0.80828
C         56.24573        60.67101         0.73813
C         57.57641        62.74831         0.35088
C         56.42095        63.34426        -0.35844
C         57.65976        65.58646        -0.26005
C         56.40494        64.84332        -0.57068
C         57.70812        67.05164        -0.64417
C         56.37881        67.73353        -0.37035
C         57.53091        69.98324        -0.11773
C         56.33562        69.21275        -0.57806
C         57.38425        71.40690         0.22409
C         56.21854        72.08097        -0.16882
C         57.38152        74.24675         0.20226
C         56.18423        73.54710        -0.11020
C         58.75164        55.03402         1.49434
C         59.94265        57.21070         1.67704
C         58.77588        56.44726         1.57511
C         59.93179        58.64731         1.65089
C         58.71927        59.35584         1.57381
C         60.02082        61.54212         1.27523
C         58.67677        60.81500         1.41543
C         60.02306        62.86521         0.65350
C         58.82643        63.49850         0.36102
C         60.13809        65.68724        -0.07285
C         58.82029        64.92038         0.01809
C         59.99737        67.12421         0.37733
C         58.82228        67.77906         0.09051
C         59.83816        69.95468         1.00390
C         58.63533        69.18024         0.48085
C         59.83197        71.42001         0.89003
C         58.49236        72.12892         0.95932
C         59.80089        74.25275         0.59641
C         58.56655        73.58683         0.56103
C         61.17888        59.35758         1.54352
C         62.48864        61.40706         1.13588
C         61.25345        60.72253         1.29844
C         62.54110        62.76999         0.82791
C         61.34741        63.47771         0.23852
C         62.48641        65.65033         0.88457
C         61.35554        64.97256         0.48142
C         62.40053        67.11037         1.08011
C         61.15968        67.83221         0.85317
C         62.28495        70.01546         1.24041
C         61.11103        69.22876         1.05024
C         62.28542        71.40981         1.06148
C         61.02480        72.11195         0.89130
C         62.26008        74.23116         0.67171
C         61.03193        73.56454         0.74925
C         63.73723        63.49432         0.90749
C         65.06085        65.49676         0.81550
C         63.78030        64.91129         0.92604
C         65.32988        66.84343         1.19722
C         63.42527        67.85620         1.63292
C         64.89722        70.00633         1.18399
C         63.51105        69.30523         1.57818
C         64.73581        71.38852         0.71654
C         63.53380        72.09688         0.86928
C         64.69629        74.24782         0.45310
C         63.50160        73.54129         0.65043
C         66.18927        67.77326         0.65218
C         67.23310        69.92222         0.37557
C         66.12457        69.22414         0.78902
C         67.23066        71.36227         0.06637
C         65.89736        72.10311         0.15126
C         67.14204        74.24141         0.08621
C         65.92641        73.57549         0.24761
C         68.44327        72.17041         0.15210
C         68.37746        73.53949         0.07302
O         52.06700        52.50275        -0.76716
O         48.87629        46.87911         2.62034
O         54.80866        57.88273         2.55720
O         40.00417        60.76895         1.07574
O         32.48205        60.92150         2.53739
O         46.28006        55.49740         1.69113
O         53.15742        50.59994         2.43752
O         37.61044        67.36671         1.03537
O         48.05686        57.26276        -1.99821
O         53.59864        71.82480        -2.64473
O         36.85448        65.16537        -1.71498
O         47.16652        67.31935        -2.84659
O         25.43291        70.76079         2.56432
O         29.78660        63.01948         2.96472
O         57.26366        69.71473        -1.55909
O         59.27622        61.53360         2.54354
O         54.51840        62.65346        -1.72836
O         35.15622        57.82341        -1.08867
O         46.45901        38.42389        -3.35218
O         50.10012        45.05142        -0.51873
O         64.50096        67.25833         2.26266
O         52.04088        48.07195         2.71820
O         34.99911        53.40150        -1.41770
O         43.25616        41.28853         1.22826
O         64.41359        69.87567         2.55417
O         46.30574        51.57927         2.39432
O         51.80710        54.49693         2.14959
O         55.73346        67.35300         0.88645
O         45.85091        58.58310        -2.54675
O         43.94244        55.10944        -1.77721
O         38.04627        56.63731        -1.64591
O         58.79166        69.43224         1.91743
O         37.44163        61.22917         1.56714
O         27.11525        69.62602        -0.50666
O         66.39258        71.61164        -1.13809
O         48.16681        43.43753         2.03039
O         50.67215        67.55365         0.54104
O         29.94526        65.47479         2.98162
O         57.26643        57.84724         2.88921
O         56.70917        63.90844        -1.67181
O         44.93250        45.30289         2.71025
H         45.74418        44.83432         3.00408
O         37.49028        62.44366        -1.88983
H         37.30118        63.32088        -2.30560
O         38.66602        59.34314        -2.01385
H         38.40958        58.45406        -2.36118
O         60.38843        65.76333        -1.54287
H         61.23460        66.24522        -1.67052
O         27.11900        72.68567         2.66185
H         26.75908        71.96268         3.22857
O         44.00654        68.79553         0.53505
H         43.87967        69.62886         1.03489
O         49.85416        62.93589         1.35803
H         49.86567        63.90050         1.53807
O         28.91280        71.94670        -1.29151
H         28.56637        71.03416        -1.41836
O         51.54322        49.98576        -0.84398
H         51.95236        50.71394        -1.37190
O         38.53214        67.69973        -2.46570
H         39.09173        68.33210        -2.97995
O         50.48455        56.46175        -1.57532
H         49.71254        56.72136        -2.14350
O         50.10563        71.19978        -3.26125
H         50.13782        72.11880        -3.60240
O         48.58267        56.81411         1.57321
H         47.71376        56.37622         1.86290
O         61.46081        63.25485        -1.20616
H         60.87901        63.91824        -1.65096
O         45.16515        65.52633        -3.28130
H         45.99446        65.99356        -3.55934
O         45.19288        61.13655        -3.09355
H         45.34314        60.18317        -3.31898
O         39.63536        69.12421         0.77427
H         38.99065        68.60532         1.31615
O         43.64644        52.39861         2.44115
H         44.52434        52.20422         2.85471
O         39.86133        69.91360        -2.80544
H         40.49037        70.55436        -3.22625
O         30.80093        67.83030         2.92128
H         30.35382        67.20095         3.53714
O         56.44745        56.70334        -0.44603
H         57.12852        56.08512        -0.78661
O         40.35112        52.36213        -1.74894
H         39.66058        52.86132        -2.23566
O         51.31013        43.01415         2.31521
H         52.09042        42.45953         2.52506
O         40.58529        46.02006        -1.41258
H         39.88020        45.68618        -2.00621
O         47.65016        39.16629        -3.65249
H         48.29684        38.46495        -3.91172
O         41.39460        72.21492        -2.90015
H         40.75123        72.92907        -3.10051
O         47.68884        42.18649        -2.07286
H         48.47147        41.78921        -2.51346
O         21.81735        69.39406         0.67366
H         21.98596        69.35875        -0.28990
O         32.48030        66.82395        -1.18908
H         33.29029        66.47189        -1.61875
O         45.05225        40.83993        -2.58292
H         45.92234        41.26735        -2.77065
O         52.77974        69.37874        -3.06085
H         53.29503        70.08649        -3.51305
O         55.25003        49.98646        -0.60858
H         56.11008        49.60094        -0.88029
O         43.86663        68.02842        -3.04548
H         44.06051        67.17246        -3.50166
O         39.91854        50.01570         2.37462
H         40.69755        49.58305         2.78593
O         57.94118        67.11070        -2.06742
H         58.76546        66.59738        -2.24744
O         52.16246        57.23683         2.61665
H         52.03199        56.31899         2.95497
O         54.75100        69.88918         1.06003
H         54.92666        68.96517         1.37407
O         36.72234        56.28903         1.78828
H         37.48750        55.71762         2.01089
O         40.90466        45.98206         2.22953
H         41.68629        46.10878         2.80813
O         58.11051        72.11375         2.37779
H         58.13009        71.16726         2.65839
H         23.13799        75.20664        -0.40430
H         25.54096        75.22458        -0.22003
H         27.99731        75.40569         0.18405
H         30.51617        75.36933         0.28042
H         32.93042        75.31953        -0.06310
H         35.39731        75.30383        -0.27171
H         37.86003        75.29355        -0.42185
H         40.32622        75.28075        -0.45600
H         42.80064        75.24917        -0.58661
H         45.22392        75.22690        -0.87741
H         47.69630        75.21719        -1.02944
H         50.16268        75.20500        -1.13771
H         52.53284        75.23471        -0.84939
H         54.94202        75.30857        -0.28496
H         57.40431        75.33767         0.05219
H         59.82605        75.33724         0.40589
H         62.26763        75.32472         0.54669
H         64.67183        75.34705         0.40694
H         67.15434        75.34088         0.08352
H         22.69675        70.05762         2.40547
H         20.90517        71.59068         0.40225
H         20.96816        73.97652        -0.34069
H         24.58668        65.19324         1.09430
H         23.30545        67.34609         0.99969
H         27.02990        60.96365         0.87026
H         25.81643        63.11275         1.02139
H         29.35655        56.59813         0.72572
H         28.20199        58.80561         0.85347
H         31.75781        52.23454         0.61613
H         30.55558        54.40886         0.65763
H         34.22637        47.89588         0.43470
H         32.98272        50.04552         0.62151
H         36.76502        43.68824        -0.30815
H         35.48754        45.77311         0.14419
H         39.26795        39.46561        -0.92644
H         38.00483        41.58149        -0.62226
H         41.81566        35.30778        -1.78695
H         40.53869        37.36183        -1.39049
H         45.27657        32.06202        -2.42321
H         43.09365        33.23023        -2.18356
H         47.41601        33.32105        -2.23215
H         48.62458        35.39166        -1.69633
H         49.84196        37.48817        -1.24118
H         51.04080        39.59359        -0.87741
H         52.27304        41.51638        -0.04087
H         53.57846        43.70576         0.58707
H         54.78275        45.76809         0.88816
H         56.06019        47.87702         1.01977
H         57.32044        50.19708         1.55418
H         58.48512        52.35281         1.66832
H         59.70271        54.48597         1.57251
H         60.91758        56.70106         1.67795
H         62.11050        58.77314         1.57548
H         63.42373        60.87218         1.36374
H         64.67462        62.94821         1.09542
H         65.87947        64.86573         0.43537
H         66.93890        67.40545        -0.06532
H         68.14985        69.36012         0.13770
H         69.40601        71.66594         0.31882
H         69.30801        74.12495         0.08564
