         618
 CSIRO Nanostructure Databank - Neutral Graphene Oxide Data Set
C         23.25691        70.05093         1.32802
C         23.14459        71.41683         1.02224
C         22.01187        72.15764         1.39528
C         23.04454        74.26230         0.73113
C         21.94337        73.54888         1.18653
C         25.66420        65.76292         0.89074
C         25.57534        67.13734         0.75809
C         24.46650        67.90116         1.21770
C         25.55039        69.93629         0.28027
C         24.38848        69.27955         0.99304
C         25.54917        71.43951         0.29485
C         24.19541        72.10021         0.15838
C         25.43744        74.27574         0.18612
C         24.25352        73.59369         0.38811
C         27.86023        61.46858         0.18698
C         27.88868        62.83768         0.03811
C         26.79505        63.64104         0.52534
C         27.76120        65.67156        -0.57126
C         26.74676        65.00460         0.34688
C         27.90929        67.15124        -0.30043
C         26.64898        67.89635         0.01945
C         28.07961        69.98287         0.15855
C         26.87125        69.24374         0.69007
C         27.98470        71.41951         0.62086
C         26.71348        72.14453         0.23124
C         27.80442        74.30414        -0.42753
C         26.68805        73.59684        -0.01792
C         30.28934        57.07166         0.04982
C         30.26496        58.53265         0.00539
C         29.06839        59.21476         0.12022
C         30.28339        61.36121        -0.61949
C         28.96078        60.61857        -0.26775
C         30.29889        62.82718        -0.56845
C         29.08762        63.53772        -0.42782
C         30.27547        65.62532        -0.90680
C         29.08287        64.94125        -0.59209
C         30.21554        67.09930        -1.16494
C         29.03058        67.85270        -0.63725
C         30.18971        70.05119        -1.29706
C         29.07922        69.32913        -0.50362
C         30.29123        71.53806        -1.00614
C         29.15939        72.36224        -1.24802
C         30.27509        74.27245        -0.23959
C         29.08879        73.67739        -0.67294
C         32.78606        52.73920         0.39602
C         32.71764        54.23036         0.53209
C         31.51132        54.85347        -0.23097
C         32.73248        57.05938         0.12821
C         31.44047        56.35219        -0.01023
C         32.77184        58.55587         0.04689
C         31.50407        59.26876        -0.17456
C         32.77970        61.38229        -0.50419
C         31.53700        60.63501        -0.40935
C         32.76355        62.75077        -0.78558
C         31.52618        63.50641        -0.77532
C         32.77165        65.60482        -1.30129
C         31.49797        64.91462        -0.97687
C         32.78438        67.08301        -1.53219
C         31.48685        67.85710        -1.48315
C         32.65636        69.92742        -0.75088
C         31.51299        69.31099        -1.15698
C         32.62259        71.30355        -0.19306
C         31.43588        72.12957        -0.46549
C         32.71163        74.16941         0.16126
C         31.48595        73.53527        -0.18869
C         35.26203        48.48622         0.22967
C         35.24248        49.91307         0.24626
C         34.02689        50.62485         0.27974
C         35.24784        52.77337         0.18725
C         33.99222        52.05004         0.27996
C         35.23268        54.20431         0.04997
C         34.01483        54.88602         0.10967
C         35.27940        57.08031        -0.35883
C         33.96630        56.29771        -0.22563
C         35.24991        58.53436        -0.14495
C         34.05674        59.26048        -0.18578
C         35.26483        61.39448        -0.43965
C         34.04048        60.67570        -0.35944
C         35.29495        62.75114        -0.79190
C         34.03388        63.42881        -1.25425
C         35.25775        65.60858        -0.93338
C         34.04826        64.91249        -1.00744
C         35.28750        67.05528        -0.93502
C         34.07317        67.82316        -1.29308
C         35.19787        69.93506        -0.35093
C         33.99064        69.28476        -0.88779
C         35.19350        71.28308         0.02796
C         33.90317        71.99379         0.19154
C         35.15434        74.12156         0.48672
C         33.92569        73.47434         0.27219
C         37.72045        44.19714         0.33794
C         37.66537        45.59959         0.24852
C         36.47082        46.33425         0.19917
C         37.71589        48.48641         0.15430
C         36.46090        47.76136         0.19376
C         37.71827        49.91233         0.20097
C         36.48192        50.63565         0.24659
C         37.70576        52.80386         0.20926
C         36.47234        52.07116         0.21565
C         37.71972        54.19518         0.06753
C         36.48816        54.93272        -0.06129
C         37.76682        57.06335        -0.03516
C         36.52575        56.33554        -0.14017
C         37.79224        58.47919        -0.03553
C         36.52141        59.21152         0.09730
C         37.79496        61.39967        -0.38846
C         36.52423        60.74220        -0.05117
C         37.76578        62.74568        -0.72743
C         36.52195        63.46450        -0.80871
C         37.73670        65.61762        -0.70176
C         36.51318        64.89552        -0.86011
C         37.71187        67.03469        -0.51977
C         36.47810        67.74175        -0.67676
C         37.72913        69.87618         0.01674
C         36.46893        69.22036        -0.56002
C         37.59275        71.21925         0.64414
C         36.37239        71.98709         0.37401
C         37.60645        74.08790         0.82279
C         36.37937        73.40162         0.60535
C         40.20704        39.90925         0.66714
C         39.74584        41.07902         0.07147
C         38.82020        42.04360         0.51850
C         40.15073        44.09088        -0.19714
C         38.90917        43.42741         0.17177
C         40.23083        45.54377         0.06414
C         38.94425        46.32865         0.31811
C         40.17398        48.47538         0.03996
C         38.94452        47.78898         0.13008
C         40.17054        49.90581         0.08802
C         38.95849        50.60448         0.21755
C         40.22208        52.78897         0.19490
C         38.96421        52.06776         0.59272
C         40.20923        54.16133         0.02735
C         38.97517        54.92314         0.06079
C         40.27613        57.06497         0.31920
C         38.98803        56.31998         0.04862
C         40.26966        58.54321        -0.00793
C         39.01819        59.23215        -0.09949
C         40.27184        61.34276        -0.39348
C         39.02448        60.64481        -0.29794
C         40.28510        62.75832        -0.61958
C         39.03433        63.46510        -1.10448
C         40.18698        65.62600        -0.55476
C         38.98710        64.92743        -0.71310
C         40.17638        67.00237        -0.22618
C         38.93179        67.71829        -0.17156
C         40.15316        69.71434         0.69657
C         38.90786        69.05535         0.27543
C         40.16752        71.22903         0.96958
C         38.86358        71.95918         1.03028
C         40.08495        74.11209         0.88730
C         38.85527        73.43442         0.91949
C         42.85807        35.83314         1.15468
C         42.74795        37.19315         0.70322
C         41.54643        37.90927         0.77088
C         42.59705        39.87742        -0.28727
C         41.43513        39.24263         0.31147
C         42.64304        41.28990        -0.60599
C         41.47702        42.04607        -0.78159
C         42.59620        44.19764        -0.67655
C         41.37184        43.45797        -0.54568
C         42.60883        45.60960        -0.65008
C         41.43280        46.31678        -0.30765
C         42.62699        48.45765        -0.12170
C         41.41808        47.74186        -0.12947
C         42.66457        49.88850        -0.00489
C         41.42109        50.64379         0.04708
C         42.75516        52.77302         0.18447
C         41.43700        52.03345         0.08407
C         42.72453        54.18462        -0.35863
C         41.44021        54.86406        -0.40164
C         42.76099        57.05294        -0.27640
C         41.45924        56.38764        -0.33395
C         42.79065        58.49088         0.20480
C         41.48658        59.22283        -0.07844
C         42.74892        61.36239        -0.29581
C         41.50593        60.64134        -0.25231
C         42.72597        62.77301        -0.41454
C         41.48309        63.45745        -0.58733
C         42.70885        65.65282        -0.41290
C         41.48387        64.93304        -0.92265
C         42.67125        67.01257        -0.15362
C         41.41700        67.72581        -0.07253
C         42.60681        69.90604         0.13428
C         41.40075        69.07896         0.26855
C         42.60450        71.34496         0.46448
C         41.39268        72.00540         0.71172
C         42.56622        74.14694         0.74025
C         41.34526        73.43738         0.79276
C         45.28739        33.08746         1.77321
C         44.08673        33.77154         1.64021
C         45.35295        35.83446         0.98879
C         44.06098        35.14213         1.25840
C         45.19270        37.17525         0.30670
C         43.88999        37.84894         0.15532
C         45.06647        39.82831        -0.94577
C         43.83273        39.16326        -0.32784
C         45.12042        41.33004        -0.78915
C         43.89965        41.99886        -0.73300
C         45.18629        44.19349        -0.99599
C         43.82284        43.44514        -0.99148
C         45.17554        45.61295        -0.69989
C         43.89329        46.33113        -0.81786
C         45.14631        48.32992         0.20731
C         43.89474        47.79435        -0.46086
C         45.14175        49.85349         0.22145
C         43.88135        50.55714        -0.05661
C         45.19920        52.72938        -0.38699
C         43.87905        52.00013        -0.48642
C         45.17789        54.15739        -0.57042
C         43.91799        54.87931        -0.57401
C         45.17660        57.08445        -0.69243
C         43.90450        56.34071        -0.54263
C         45.21919        58.54323        -0.44202
C         44.03614        59.23666        -0.22820
C         45.22838        61.38199        -0.44192
C         44.01399        60.66832        -0.29028
C         45.20540        62.80876        -0.45474
C         43.96405        63.51098        -0.40717
C         45.17821        65.66019        -0.19747
C         43.94196        64.92773        -0.32403
C         45.18217        67.04467        -0.05306
C         43.91222        67.72400         0.34546
C         45.16393        69.96237         0.27042
C         43.92688        69.20121         0.01302
C         45.10304        71.37344         0.43799
C         43.83474        72.05720         0.49071
C         45.05106        74.18756         0.71120
C         43.80571        73.47806         0.65400
C         46.52399        33.70965         1.53566
C         47.92003        35.63480         1.03195
C         46.63492        35.04014         1.08269
C         48.17025        36.82373         0.28760
C         46.29109        37.78421        -0.45335
C         47.70488        39.75612        -0.85336
C         46.37610        39.12456        -0.61768
C         47.67371        41.28126        -0.97083
C         46.37977        42.02198        -0.88019
C         47.65521        44.17123        -0.74438
C         46.42185        43.41859        -0.81984
C         47.64088        45.56178        -0.68798
C         46.40116        46.30446        -0.56426
C         47.66762        48.41639        -0.22360
C         46.42041        47.70462        -0.31651
C         47.68800        49.85474        -0.04201
C         46.42689        50.60705         0.10275
C         47.69183        52.69559        -0.59217
C         46.38523        52.03492        -0.26597
C         47.63118        54.17533        -0.41227
C         46.43209        54.85117        -0.53246
C         47.72300        57.06206        -0.43464
C         46.46321        56.32419        -0.67210
C         47.70083        58.49849        -0.58910
C         46.49356        59.21841        -0.55046
C         47.70206        61.37395        -0.46628
C         46.50432        60.67356        -0.50176
C         47.73798        62.85524        -0.69931
C         46.43034        63.55203        -0.43765
C         47.65265        65.63319         0.08888
C         46.41395        64.92235        -0.27273
C         47.66212        67.12930         0.15083
C         46.42773        67.86228        -0.32335
C         47.60129        70.00163         0.36063
C         46.39976        69.29153         0.19460
C         47.57412        71.40974         0.58638
C         46.31654        72.10496         0.58087
C         47.54027        74.35625         0.77733
C         46.26852        73.53521         0.68968
C         49.04785        37.88167         0.44258
C         50.10436        39.92187        -0.24931
C         48.95817        39.14582        -0.27203
C         50.14632        41.32910        -0.52662
C         48.91727        42.04576        -0.72249
C         50.15570        44.16426        -0.55912
C         48.91748        43.44240        -0.69518
C         50.17291        45.57332        -0.53013
C         48.92078        46.33585        -0.90117
C         50.13440        48.37960         0.14475
C         48.87529        47.73115        -0.35097
C         50.14701        49.87581        -0.02659
C         48.89439        50.56660        -0.03656
C         50.08554        52.68552         0.24014
C         48.90961        52.00383        -0.03062
C         50.01822        54.14017         0.53873
C         48.82108        54.90369         0.06042
C         50.21170        56.98065        -0.23061
C         48.87663        56.35953        -0.17207
C         50.29026        58.45728        -0.51830
C         48.99428        59.19523        -0.75470
C         50.25727        61.40435        -0.19964
C         49.00883        60.70644        -0.63108
C         50.22123        62.81963         0.00652
C         48.95750        63.55178        -0.12714
C         50.21907        65.68328         0.02553
C         48.92859        64.90285         0.04707
C         50.12711        67.15694         0.37044
C         48.94655        67.84851         0.16666
C         50.11146        69.97163         0.68018
C         48.92620        69.34574         0.01507
C         50.10191        71.44260         1.00005
C         48.79429        72.14878         0.70765
C         50.04598        74.25663         0.65671
C         48.82295        73.55562         0.69927
C         51.35612        42.02465        -0.42340
C         52.62127        44.14848        -0.41084
C         51.39939        43.44301        -0.46019
C         52.65070        45.55994        -0.38830
C         51.39521        46.26737        -0.38784
C         52.60576        48.39339        -0.30197
C         51.41125        47.69401        -0.26961
C         52.58782        49.87031        -0.34966
C         51.33482        50.58518        -0.02944
C         52.57921        52.71461         0.32105
C         51.35408        52.00674         0.19972
C         52.58658        54.12269         0.65011
C         51.29524        54.85824         0.98549
C         52.56193        57.07541         0.82789
C         51.38501        56.26788         0.37389
C         52.66083        58.52880         0.54701
C         51.52176        59.22777        -0.10784
C         52.62514        61.37542         0.48660
C         51.43864        60.69708         0.07647
C         52.61251        62.79927         0.56178
C         51.38446        63.50000         0.39257
C         52.59590        65.71770         0.69416
C         51.30255        64.95734         0.80577
C         52.59091        67.10567         0.78261
C         51.34743        67.84397         0.66863
C         52.53047        70.03816         1.11135
C         51.29004        69.27014         0.82848
C         52.57734        71.44639         0.67159
C         51.27836        72.11157         0.28391
C         52.51712        74.27289         0.47354
C         51.29950        73.60650         0.50500
C         53.86593        46.30009        -0.36255
C         55.09448        48.45725        -0.28176
C         53.87670        47.70886        -0.35759
C         55.14390        49.86562        -0.18825
C         53.87713        50.62953        -0.32310
C         55.05107        52.70818         0.24119
C         53.84584        52.04889         0.10129
C         55.05771        54.10606         0.69638
C         53.77230        54.80840         0.80803
C         55.08905        57.01498         0.96799
C         53.82577        56.26823         1.06726
C         55.03034        58.46507         1.39648
C         53.78857        59.21111         0.91855
C         55.00574        61.39561         1.09026
C         53.83393        60.67066         0.82204
C         55.04026        62.81522         0.94926
C         53.83885        63.50783         0.73282
C         55.11158        65.68336         0.78026
C         53.85446        64.97151         0.37356
C         55.06054        67.10986         0.94144
C         53.85711        67.80689         0.95954
C         55.05914        70.04610         0.88712
C         53.84189        69.27613         1.19539
C         55.02459        71.38732         0.58034
C         53.77071        72.11674         0.50395
C         54.96748        74.28921         0.28592
C         53.78043        73.58264         0.35938
C         56.33129        50.59315        -0.02714
C         57.50738        52.77149         0.01346
C         56.33488        52.02982         0.06749
C         57.48271        54.27370        -0.13878
C         56.32905        54.90024         0.61731
C         57.54215        57.09603         0.70009
C         56.28252        56.38659         0.71030
C         57.57921        58.48390         0.96770
C         56.27152        59.25509         0.87244
C         57.56066        61.41645         1.42710
C         56.23184        60.68175         1.61407
C         57.54707        62.85720         1.08435
C         56.31806        63.53370         0.94155
C         57.58395        65.66873         0.45221
C         56.30195        64.96318         0.80125
C         57.60208        67.12908         0.78863
C         56.34457        67.82479         1.11598
C         57.54938        69.97620         0.41099
C         56.34078        69.32370         1.03112
C         57.53617        71.45902         0.57212
C         56.28169        72.10041         0.22599
C         57.54594        74.33560         0.21551
C         56.26861        73.63272         0.08304
C         58.76375        54.99695         0.17456
C         59.99889        57.09956         0.50262
C         58.76855        56.36033         0.47807
C         60.01958        58.47070         0.69908
C         58.80602        59.17441         0.95808
C         60.06489        61.39211         0.83246
C         58.84767        60.63674         1.20099
C         60.04286        62.78679         0.93274
C         58.81464        63.53728         1.00622
C         60.04314        65.68680         0.80011
C         58.84782        64.95261         0.85429
C         60.04805        67.09608         0.58513
C         58.80053        67.82360         0.68132
C         60.04429        69.93438         0.49723
C         58.84722        69.26524         0.66987
C         60.10266        71.40793         0.58708
C         58.75627        72.21708         0.64711
C         60.03337        74.27199         0.13263
C         58.76640        73.65689         0.30176
C         61.35635        59.18088         0.69385
C         62.45736        61.37739         0.29135
C         61.29260        60.69057         0.56758
C         62.55361        62.80811         0.45314
C         61.33927        63.49558         0.95835
C         62.55209        65.71555         0.52503
C         61.34165        65.01761         0.95934
C         62.50154        67.06960         0.20856
C         61.25664        67.79491         0.34842
C         62.44621        69.91412        -0.12514
C         61.26724        69.21563         0.25330
C         62.42717        71.35395        -0.27118
C         61.26522        72.10382         0.06852
C         62.43210        74.18017        -0.46243
C         61.23140        73.52926        -0.03961
C         63.71011        63.51086         0.23428
C         64.96435        65.68954        -0.08909
C         63.85579        64.96853         0.62519
C         64.89475        67.00768        -0.42440
C         63.68431        67.77902        -0.20640
C         64.83667        69.89421        -0.81206
C         63.64611        69.17867        -0.40092
C         64.81392        71.30352        -0.93669
C         63.60061        72.04027        -0.68394
C         64.76221        74.22921        -1.32554
C         63.57241        73.46810        -0.78725
C         66.07910        67.66586        -1.09717
C         67.21228        69.86325        -1.35819
C         66.04917        69.17673        -1.06828
C         67.23726        71.28640        -1.43170
C         66.02195        72.01197        -1.26036
C         67.24148        74.08826        -1.61479
C         66.03987        73.42916        -1.37845
C         68.44399        71.98829        -1.68534
C         68.44461        73.36920        -1.75899
O         45.79424        50.36851         1.44877
O         51.17481        56.21779        -1.06068
O         47.81362        40.40040        -2.16220
O         40.32721        41.38181        -1.18517
O         52.98330        56.74537         2.18544
O         45.85775        56.73904        -1.95613
O         32.82852        57.84323         1.35992
O         43.24751        69.60489        -1.20366
O         59.57160        71.91911         1.84274
O         43.97105        47.39494        -1.85728
O         44.46057        43.85828        -2.23645
O         30.56087        67.47231        -2.55080
O         32.82663        66.18588        -2.68288
O         47.45872        66.36530         1.38438
O         28.71128        71.84607         1.50913
O         29.39717        60.84490        -1.65352
O         56.14895        59.52610        -0.46857
O         34.26759        68.86634        -2.29388
O         37.41667        69.92868        -1.42712
O         36.49751        60.10902         1.26829
O         53.14500        69.73832         2.40416
O         55.97796        54.27730         1.87752
O         48.96275        54.48152         1.51952
O         41.19348        55.71683        -1.58618
O         49.07457        60.03686        -1.94862
O         39.78333        45.89492         1.43885
O         56.24919        72.72437        -1.11873
O         56.48371        68.67982         2.32480
O         61.53506        64.24489         2.21448
O         40.27952        70.26396         2.06490
O         47.32611        36.94151        -0.83066
O         37.99342        71.36940         2.04268
O         34.51217        56.63734        -1.54446
O         58.43482        61.07549         2.55951
O         45.51443        37.08498         1.76336
O         53.19145        50.39043        -1.60231
O         26.08390        68.25582        -1.31082
O         25.43473        69.58523        -1.15580
O         51.30481        58.78743        -1.50047
O         33.05522        71.35483         1.21924
O         23.76890        71.92140        -1.22805
H         23.95116        70.98819        -1.47879
O         44.94247        39.62205        -2.39399
H         45.77564        39.96052        -2.79803
O         47.86074        52.48464        -2.06346
H         47.26724        53.11702        -2.52433
O         39.11561        63.44619        -2.56613
H         39.95002        63.92022        -2.80880
O         64.21619        64.95205         2.05629
H         63.41263        64.62355         2.53128
O         42.89585        58.41983         1.66700
H         42.11021        57.90484         1.98408
O         50.08247        48.18326         1.61926
H         50.81954        48.69737         2.01325
O         49.13752        69.62491        -1.42724
H         49.68896        70.44262        -1.49642
O         38.97280        52.07543         2.07610
H         38.20240        51.54484         2.37305
O         31.64066        54.59038        -1.63216
H         32.43881        55.04946        -1.96925
O         50.65395        65.67221        -1.36287
H         49.97743        66.12617        -1.90817
O         45.02443        47.88946         1.59169
H         45.50270        48.55817         2.13789
O         46.55282        67.95521        -1.77452
H         45.84005        68.54081        -2.10772
O         51.05815        71.87220        -1.14349
H         51.76526        72.33411        -1.64259
O         43.86079        67.69720         1.81882
H         44.05350        66.78055         2.11022
O         41.53515        64.98653        -2.39780
H         41.61390        65.92936        -2.65888
O         26.97963        69.11258         2.10879
H         27.48203        69.87660         2.46369
O         50.35631        71.59480         2.42202
H         49.71453        71.04273         2.91476
O         47.52902        75.38288        -0.22922
H         47.51604        74.94899        -1.10680
O         47.91961        62.96646        -2.16095
H         48.54683        62.26596        -2.44776
O         66.12919        67.23790        -2.47733
H         65.34188        67.59814        -2.93478
O         62.21121        58.62581        -0.31336
H         61.78408        58.75729        -1.18445
O         57.19697        54.55347        -1.55844
H         57.92295        54.17221        -2.09561
O         50.90745        64.97188         2.20672
H         51.60739        64.53047         2.73151
O         43.54677        51.99064        -1.90929
H         44.22316        51.46632        -2.38688
O         57.35095        69.77381        -1.05751
H         57.01671        70.61222        -1.44920
O         51.25886        54.93588         2.41983
H         50.31170        54.90543         2.69214
O         57.58383        65.61080        -1.04042
H         58.29862        66.20609        -1.35505
O         27.21465        65.58295        -1.92344
H         26.46305        66.21256        -1.98639
O         34.03097        63.28449        -2.72731
H         33.46725        63.99953        -3.09814
O         56.02862        60.56840         3.01496
H         56.90778        60.41777         3.43447
O         28.15196        71.93598        -2.02257
H         28.42282        71.08673        -2.46584
O         64.95381        75.45133        -0.59959
H         65.18267        75.22432         0.32480
O         55.06138        58.39135         2.83691
H         54.30601        57.81445         3.10279
O         43.06208        52.87126         1.60221
H         42.24658        53.13129         2.07997
O         53.91742        64.99525        -1.10928
H         54.80231        64.65661        -1.36973
O         29.75806        69.96152        -2.68698
H         29.87439        69.01317        -2.97254
O         40.52136        56.95741         1.77078
H         39.76155        57.37392         2.23183
O         32.46124        54.53652         1.93990
H         33.18633        54.14678         2.47167
O         49.01091        46.51482        -2.37084
H         48.93980        45.62585        -2.78061
H         23.02012        75.36204         0.71819
H         25.44059        75.37685         0.20535
H         27.74454        75.40351        -0.46337
H         30.25729        75.30357         0.14079
H         32.71037        75.26103         0.29981
H         35.16934        75.21707         0.58934
H         37.59008        75.18828         0.82599
H         40.08322        75.21233         0.87876
H         42.55155        75.24507         0.80367
H         45.03083        75.28464         0.78978
H         47.53963        74.89765         1.76431
H         50.02061        75.35584         0.70457
H         52.53401        75.37055         0.55915
H         54.94321        75.38841         0.34175
H         57.54292        75.43621         0.18732
H         60.07193        75.35997        -0.02769
H         62.44382        75.27623        -0.55473
H         64.51334        74.53674        -2.38206
H         67.24460        75.18470        -1.69109
H         22.42110        69.55567         1.84750
H         21.18435        71.64762         1.91077
H         21.03314        74.08883         1.48307
H         24.87501        65.22249         1.43637
H         23.63588        67.38632         1.72340
H         27.00234        60.99472         0.68789
H         25.99039        63.13881         1.08460
H         29.31876        56.55337         0.01162
H         28.16352        58.68623         0.45618
H         31.85201        52.16942         0.51494
H         30.56710        54.36624         0.11399
H         34.30476        47.94433         0.24946
H         33.07775        50.06998         0.31452
H         36.77805        43.64771         0.48404
H         35.50972        45.79842         0.19204
H         39.63922        39.48863         1.51088
H         38.02436        41.74589         1.21803
H         41.92958        35.30800         1.42764
H         40.66597        37.43510         1.22919
H         45.27566        32.03312         2.08315
H         43.13534        33.25951         1.84433
H         47.44648        33.12888         1.68175
H         48.74330        35.13952         1.57086
H         49.85618        37.79724         1.18525
H         51.03353        39.46526         0.12563
H         52.29151        41.46226        -0.28559
H         53.56619        43.58505        -0.39762
H         54.82098        45.75334        -0.35205
H         56.04182        47.89733        -0.24334
H         57.29448        50.06075        -0.00894
H         58.46767        52.24802        -0.11803
H         59.72303        54.48780        -0.01426
H         60.94458        56.57045         0.31367
H         61.85744        58.96074         1.67883
H         63.36758        60.81084         0.04479
H         64.61429        62.97069        -0.08692
H         65.90144        65.13815        -0.26316
H         67.02717        67.30060        -0.62700
H         68.14259        69.30456        -1.53887
H         69.37684        71.42144        -1.81583
H         69.38149        73.91215        -1.94615
