         404
 CSIRO Nanostructure Databank - Neutral Graphene Oxide Data Set
C          1.26315         3.71752        -1.92643
C          0.05740         4.22573        -1.43519
C          1.16697         6.29967        -0.80542
C          0.00382         5.50663        -0.89355
C          1.12669         7.65411        -0.25489
C         -0.04365         8.37898        -0.10769
C          1.09274        10.52358         0.35605
C         -0.06108         9.77137         0.17259
C          1.11616        11.97921         0.31489
C         -0.07663        12.72612         0.18577
C          1.14369        14.84216         0.17354
C         -0.06458        14.10926         0.11083
C          1.16713        16.28665         0.03527
C          0.01149        17.01426        -0.30921
C          1.21954        19.14207        -0.28170
C          0.04032        18.39562        -0.46746
C          1.22846        20.58404        -0.47250
C          0.09383        21.34296        -0.72416
C          1.19684        23.48932        -0.23359
C          0.08361        22.76022        -0.60030
C          1.10509        24.87093         0.31031
C         -0.05679        25.71248        -0.02774
C          1.13649        27.80237         0.52575
C         -0.01323        27.06885         0.08249
C          1.11240        29.19918         0.62980
C         -0.07275        29.97480         0.49900
C          1.10395        32.13313         0.51247
C         -0.07853        31.36356         0.49082
C          1.11010        33.54810         0.33545
C         -0.04552        34.35587         0.35693
C          1.21468        36.46521         0.48879
C          0.00553        35.75582         0.45110
C          1.31819        37.84988         0.82233
C          3.69812         3.96516        -2.51256
C          2.43563         4.48102        -1.85444
C          3.64010         6.56744        -1.17752
C          2.39478         5.76523        -1.27484
C          3.66529         7.74874        -0.31081
C          2.38966         8.27082         0.16978
C          3.63451        10.52544         0.48817
C          2.35936         9.81217         0.54481
C          3.60429        11.97375         0.48824
C          2.35310        12.68736         0.39428
C          3.59251        14.85555         0.46897
C          2.36203        14.12071         0.34281
C          3.56551        16.27971         0.54656
C          2.38926        17.00672         0.25074
C          3.61562        19.18185         0.33455
C          2.41845        18.45261         0.10766
C          3.68384        20.57549         0.13018
C          2.51353        21.28291        -0.38813
C          3.70380        23.49269         0.33134
C          2.50797        22.84152        -0.24075
C          3.67352        24.89442         0.61068
C          2.36058        25.57168         0.76860
C          3.66175        27.78126         0.76854
C          2.35328        27.07520         1.08518
C          3.66593        29.18351         0.71845
C          2.38198        29.91299         0.90294
C          3.66926        32.08870         0.47843
C          2.38112        31.42311         0.76497
C          3.66939        33.47779         0.31036
C          2.40475        34.21141         0.11292
C          3.73944        36.39060         0.47413
C          2.45457        35.74878         0.17525
C          3.78213        37.77293         0.77709
C          2.53688        38.48464         0.91877
C          6.13015         3.78485        -1.89256
C          4.96673         4.48159        -1.87707
C          6.19337         6.44878        -0.82696
C          4.98041         5.89219        -1.45377
C          6.14805         7.73807        -0.27259
C          4.86752         8.41268        -0.04293
C          6.09852        10.47401         0.61401
C          4.82258         9.78097         0.42539
C          6.08323        11.98354         0.60722
C          4.80281        12.70607         0.47496
C          6.09110        14.82252         0.50500
C          4.82747        14.12993         0.48115
C          6.10030        16.26390         0.83555
C          4.79707        17.00642         0.94097
C          6.11767        19.19259         0.61473
C          4.79961        18.53559         1.01702
C          6.11347        20.56858         0.48055
C          4.88137        21.31038         0.35724
C          6.13655        23.43201         0.75834
C          4.90304        22.74367         0.42467
C          6.09768        24.87254         1.05754
C          4.85344        25.61841         0.81033
C          6.12935        27.77235         0.70443
C          4.88400        27.06221         0.79006
C          6.12657        29.19236         0.54987
C          4.88381        29.89971         0.57305
C          6.11163        32.02527         0.26364
C          4.88640        31.33990         0.45126
C          6.10246        33.44873         0.25989
C          4.89606        34.19255         0.31379
C          6.16861        36.28304         0.71513
C          4.92992        35.62955         0.45173
C          6.24997        37.71701         0.77910
C          5.04075        38.42429         0.86600
C          8.56678         3.70957        -1.81927
C          7.39515         4.38729        -1.50989
C          8.65077         6.25948        -0.45144
C          7.41835         5.70388        -0.90409
C          8.64466         7.64920         0.00762
C          7.40046         8.37521         0.06165
C          8.55638        10.52996         0.37930
C          7.37135         9.77340         0.33828
C          8.57574        11.98297         0.42045
C          7.29990        12.68336         0.05726
C          8.56139        14.82544         0.44010
C          7.30464        14.14736         0.38989
C          8.54657        16.28146         0.25586
C          7.33414        17.03445         0.57693
C          8.62801        19.10108         0.41934
C          7.35169        18.42128         0.52135
C          8.64278        20.57456         0.34848
C          7.37005        21.33992         0.36450
C          8.60638        23.48277         0.90454
C          7.36072        22.77567         0.74950
C          8.66947        24.87106         0.96636
C          7.42097        25.64191         1.11946
C          8.59622        27.76912         0.63627
C          7.39564        27.09150         0.80054
C          8.60449        29.18829         0.37264
C          7.36824        29.90170         0.38755
C          8.60613        32.01971         0.04707
C          7.38088        31.32464         0.23174
C          8.58324        33.50674        -0.11960
C          7.33910        34.14343         0.36932
C          9.17757        36.60884         0.31643
C          7.31347        35.45345         0.79618
C          8.75818        38.02665         0.26462
C          7.48467        38.46313         0.57845
C         11.06281         3.60833        -1.80671
C          9.83567         4.26308        -1.49563
C         11.13743         5.84833        -0.29550
C          9.84390         5.46506        -0.70968
C         11.17290         7.89756         0.33184
C          9.82744         8.43703         0.25637
C         11.01737        10.62228         0.19231
C          9.77678         9.83234         0.29716
C         11.00641        11.96786         0.80632
C          9.73939        12.70171         0.60572
C         11.06179        14.84060         0.60119
C          9.77773        14.14210         0.54064
C         11.11917        16.24436         0.45613
C          9.87756        17.00149         0.21388
C         11.12571        19.14202         0.47561
C          9.84763        18.44236         0.45134
C         11.14807        20.51308         0.59327
C          9.88163        21.23744         0.83227
C         11.17784        23.43910         1.09952
C          9.86285        22.70530         1.08145
C         11.14409        24.90831         0.92904
C          9.93843        25.57939         0.92141
C         11.07551        27.69277         0.26161
C          9.90600        27.09879         1.02023
C         11.05763        29.13576        -0.12986
C          9.81479        29.89534         0.12139
C         11.07413        31.97968        -0.36734
C          9.83056        31.30001        -0.03257
C         11.01333        33.38323        -0.80594
C          9.81997        34.29602        -0.52862
C         11.18421        36.35156        -1.38033
C         10.03177        35.83983        -0.44383
C         11.04476        38.39455        -0.13848
C          9.77233        38.88728        -0.35447
C         13.58993         3.55409        -1.64116
C         12.31069         4.23178        -1.59984
C         13.51472         6.38288        -1.07155
C         12.31255         5.51549        -0.97108
C         13.52747         7.91457        -0.77680
C         12.30730         8.50990        -0.10829
C         13.59348        10.62711         0.24651
C         12.31274         9.98187        -0.14367
C         13.59270        11.95900         0.65425
C         12.30853        12.67337         0.92897
C         13.51103        14.81632         0.86635
C         12.28222        14.14289         0.82503
C         13.55576        16.20483         0.64611
C         12.35396        16.94226         0.46470
C         13.58980        19.09191         0.33247
C         12.37374        18.39159         0.36459
C         13.64784        20.51733         0.36737
C         12.36871        21.29716         0.22049
C         13.69361        23.41232         0.46444
C         12.44603        22.68736         0.81682
C         13.68968        24.82344         0.39804
C         12.45943        25.59159         0.76547
C         13.53176        27.67937        -0.31736
C         12.41098        27.05123         0.44933
C         13.55274        29.16584        -0.37302
C         12.34769        29.85486        -0.29115
C         13.57437        31.95742        -0.63567
C         12.30497        31.28486        -0.44590
C         13.60311        33.33554        -0.85367
C         12.34797        34.03968        -1.12381
C         13.54744        36.15035        -0.94382
C         12.37238        35.48527        -1.08431
C         13.41552        37.64515        -0.95641
C         11.87302        37.85129        -1.23611
C         15.93116         3.31868        -0.93604
C         14.78725         4.15762        -1.30093
C         16.04737         6.45778        -0.87954
C         14.84143         5.66446        -1.27797
C         16.00650         7.78074        -0.28005
C         14.80445         8.49319        -0.17336
C         16.03133        10.52363         0.60493
C         14.81009         9.87128         0.22399
C         16.03792        11.91839         0.98127
C         14.81008        12.61666         0.98132
C         16.07505        14.79842         1.31344
C         14.74920        14.06826         1.24400
C         16.11438        16.20700         0.85270
C         14.86179        16.85012         0.43327
C         16.13020        19.07560         0.39641
C         14.86396        18.36066         0.21053
C         16.11927        20.50125         0.35519
C         14.86301        21.21297         0.33612
C         16.11319        23.35732         0.12254
C         14.87532        22.66554         0.28654
C         16.10010        24.77745        -0.07783
C         14.86033        25.48963        -0.00519
C         16.05464        27.65228        -0.74277
C         14.78877        26.89673        -0.48018
C         16.05718        29.12696        -0.57981
C         14.82461        29.84015        -0.50429
C         16.07723        31.96655        -0.64900
C         14.83386        31.25897        -0.57542
C         16.10857        33.39607        -0.82536
C         14.83027        34.06151        -0.92945
C         15.91138        36.18025        -1.59732
C         14.77902        35.45305        -1.06390
C         15.71348        37.60868        -1.96181
C         14.46532        38.22153        -1.88539
C         18.48790         3.21784        -0.66673
C         17.22121         3.70819        -1.17076
C         18.48493         6.35924        -0.48272
C         17.28805         5.91558        -1.12096
C         18.47022         7.67580         0.06158
C         17.24123         8.42244         0.09640
C         18.46508        10.37131         1.03342
C         17.24552         9.77152         0.54896
C         18.45538        11.71999         1.52167
C         17.28675        12.60036         1.33933
C         18.52203        14.85509         1.54605
C         17.33173        14.00958         1.39535
C         18.54452        16.22723         1.12611
C         17.31231        16.90511         0.75566
C         18.56589        19.06818         0.54328
C         17.32717        18.34594         0.52567
C         18.57566        20.48804         0.35372
C         17.34248        21.20939         0.28831
C         18.57302        23.34640         0.02478
C         17.34314        22.64177         0.13406
C         18.56204        24.77241        -0.15683
C         17.33166        25.45949        -0.27795
C         18.58884        27.66684        -0.42431
C         17.35018        26.89702        -0.63471
C         18.54962        29.08673        -0.45930
C         17.29242        29.81420        -0.55946
C         18.53414        31.98371        -0.47331
C         17.30435        31.24868        -0.57307
C         18.53241        33.42413        -0.49821
C         17.31676        34.13699        -0.82159
C         18.39180        36.53331        -1.45160
C         17.29855        35.52600        -1.39554
C         18.16831        37.75732        -2.18033
C         16.86726        38.24389        -2.48561
C         19.55980         4.03984        -0.43913
C         20.78071         6.07559         0.20335
C         19.60588         5.49370        -0.32629
C         20.82172         7.40420         0.60815
C         19.66696         8.22209         0.59581
C         20.79215        10.08663         1.77487
C         19.64967         9.57393         1.12510
C         20.74329        11.32838         2.38447
C         19.58483        12.10867         2.26964
C         20.86265        15.12352         2.29032
C         19.66501        14.40434         2.23813
C         20.92440        16.37683         1.69487
C         19.76041        16.96844         1.16081
C         20.99428        19.08666         0.63295
C         19.78854        18.37192         0.75506
C         21.00760        20.45429         0.37425
C         19.81427        21.19290         0.26929
C         21.00425        23.37404        -0.02979
C         19.81460        22.63797         0.08485
C         20.99644        24.76610        -0.16015
C         19.80312        25.49585        -0.21002
C         20.99296        27.70403        -0.13712
C         19.79898        26.95785        -0.25890
C         20.97108        29.08630        -0.16946
C         19.76478        29.81002        -0.31532
C         20.95142        31.97342        -0.07262
C         19.75943        31.26482        -0.29942
C         20.93897        33.35974         0.03637
C         19.75748        34.07123        -0.17600
C         20.68619        37.30121        -1.00235
C         19.63332        36.39415        -0.81292
C         20.51283        38.39175        -1.86613
C         19.26980        38.62692        -2.43026
O         11.54567        10.66428        -1.19780
O         14.92255        17.42971        -0.92528
O          9.17559        16.64536        -1.03517
O         10.82569        28.03335        -1.11815
O         11.27317         6.61278         0.85581
O          4.34533         6.77609        -2.46005
O         16.73494        27.18629        -1.95451
O          2.35678         8.75076         1.53955
O          2.80491        22.16885        -1.50752
O         14.10310         6.19782        -2.41880
O         12.04688        22.93964         2.18751
O          1.49909        24.86899         1.74592
O         19.84690        35.42117         0.16294
O          8.10567        21.11092        -0.91168
O          9.73907        21.75692         2.20749
O          8.50509        35.92480         1.34652
O          6.70349        25.27145         2.34250
O         17.37530         4.83746        -2.00230
O         16.58800        35.46063        -2.67687
O         13.81461        27.02600        -1.59389
O          2.37696        30.76261         2.09284
O          2.42940        35.02805        -1.10394
O         11.49146        33.51215        -2.19690
O         11.62270        12.10878         2.12665
O         12.73587        26.63360         1.79726
O          6.21469        11.27589         1.86407
O         19.56680        13.26900         3.05026
O         15.25332        14.55333         2.53218
O          8.79980        33.95123        -1.53423
O          5.44587        16.47488         2.15452
O          4.61940        18.87909         2.42799
H          5.07575        18.17340         2.94462
O         10.11815        27.43607         2.41909
H          9.49477        26.90831         2.96158
O         13.46518         8.57004        -2.08063
H         13.88935         7.95857        -2.73013
O         10.78990        36.21674        -2.74016
H         10.64379        35.25535        -2.91117
O          7.15802        12.57832        -1.40128
H          7.92790        13.02589        -1.81284
O         11.31911        37.90368         1.10148
H         10.58482        38.13729         1.70855
O         12.21237        21.57347        -1.22152
H         12.22445        20.71540        -1.69761
O         13.78382        38.18842         0.33377
H         13.24056        37.75075         1.02479
O          2.23001        27.19701         2.53113
H          1.67622        26.43733         2.82861
O          3.69667         4.41789        -3.88300
H          3.83604         5.39385        -3.85266
H          1.29625         2.71572        -2.37780
H         -0.85570         3.61696        -1.48908
H         -0.95291         5.89280        -0.51688
H         -1.00552         7.90891        -0.35704
H         -1.03594        10.27436         0.10972
H         -1.04424        12.20901         0.13940
H         -1.02371        14.63352         0.00679
H         -0.93890        16.49250        -0.48231
H         -0.88749        18.90523        -0.75993
H         -0.87680        20.85151        -0.87716
H         -0.89538        23.25687        -0.65785
H         -0.96166        25.23517        -0.42773
H         -0.90026        27.63683        -0.23291
H         -1.03979        29.46134         0.41068
H         -1.04575        31.87382         0.38167
H         -1.03201        33.87659         0.42999
H         -0.93636        36.30605         0.59334
H          0.39251        38.41866         0.99534
H          3.69493         2.84660        -2.53166
H          2.57322        39.55876         1.15171
H          6.14776         2.75136        -2.27158
H          5.06244        39.52058         0.95981
H          8.51233         2.74462        -2.34442
H          7.32989        39.55122         0.48844
H         11.02651         2.60245        -2.24945
H          9.53383        39.35241        -1.32355
H         13.57495         2.46280        -1.78703
H         11.68406        38.39635        -2.18198
H         15.72776         2.36810        -0.41969
H         14.36237        39.26279        -2.22944
H         18.60098         2.14063        -0.46848
H         16.77890        39.24665        -2.92997
H         20.49018         3.54449        -0.11368
H         21.68079         5.45334         0.31635
H         21.77276         7.79689         0.99159
H         21.70482         9.48418         1.86175
H         21.58920        11.70415         2.97383
H         21.72317        14.71205         2.83285
H         21.86454        16.94049         1.74306
H         21.95818        18.57093         0.73651
H         21.98005        20.95681         0.28668
H         21.97629        22.86393        -0.00210
H         21.96362        25.28219        -0.22298
H         21.95807        27.19576        -0.01378
H         21.92761        29.61505        -0.07434
H         21.90231        31.44849         0.07680
H         21.85318        33.90715         0.29867
H         21.63773        37.13946        -0.48046
H         21.34508        39.08487        -2.04905
H         19.09974        39.52971        -3.03347
