         470
 CSIRO Nanostructure Databank - Neutral Graphene Oxide Data Set
C         38.46914        49.65138         2.87842
C         37.84452        50.15051         3.98460
C         38.36971        52.44286         3.37649
C         37.82440        51.56409         4.25347
C         39.98844        48.56606         0.57732
C         39.97144        49.97324         0.94210
C         39.17080        50.50269         1.94841
C         39.87807        52.94178         1.31498
C         39.00965        51.97667         2.13256
C         40.08624        54.36133         1.69520
C         42.10899        48.76290        -0.69345
C         40.90184        48.01655        -0.26508
C         42.16173        50.20486        -0.34930
C         40.90062        50.84813         0.18476
C         42.19937        53.07935         0.16828
C         40.91046        52.32599         0.41302
C         42.25069        54.53292         0.48457
C         41.11194        55.10864         1.24259
C         44.64661        46.44372        -2.26254
C         43.43232        46.90061        -1.65489
C         44.65882        48.68393        -0.46405
C         43.40129        48.05645        -0.91943
C         44.74247        50.12046        -0.13670
C         43.46203        50.82211         0.07950
C         44.78867        52.98828         0.32364
C         43.48044        52.30674         0.31872
C         44.78812        54.44593         0.38013
C         43.58520        55.19764         0.49317
C         44.82406        57.25941         0.12367
C         43.63028        56.59242         0.40763
C         48.28003        45.09000        -3.17532
C         47.92689        46.15307        -2.39229
C         45.83031        47.06261        -1.97442
C         47.26382        48.77395        -0.68448
C         45.98419        48.04282        -0.90666
C         47.24220        50.06586        -0.17239
C         45.95730        50.78990        -0.02250
C         47.24189        52.89974         0.50806
C         45.95379        52.22407         0.25127
C         47.26994        54.42225         0.43970
C         46.00724        55.15346         0.23582
C         47.32785        57.18823        -0.43473
C         46.02394        56.54937         0.02124
C         47.36409        58.69553        -0.37811
C         50.21320        44.57567        -1.78545
C         49.39920        44.27274        -2.84676
C         49.88797        45.69540        -0.86664
C         48.61239        46.51726        -1.13227
C         49.69894        48.52871         0.13876
C         48.45907        47.89174        -0.48474
C         49.69446        49.99998         0.26882
C         48.51283        50.72624         0.17076
C         49.71177        52.88209         0.45289
C         48.53444        52.17805         0.35653
C         49.75786        54.37992         0.73075
C         48.54158        55.09529         0.21386
C         49.81811        57.27443         0.00945
C         48.50694        56.59744         0.34363
C         49.81869        58.65161        -0.21310
C         48.53832        59.35024        -0.29444
C         52.60147        41.65873        -1.64756
C         51.45268        42.44239        -1.90482
C         52.51053        44.36911        -0.82387
C         51.39179        43.76559        -1.49906
C         52.40634        45.69236        -0.36701
C         51.07091        46.32172        -0.17365
C         52.30161        48.54997         0.23778
C         51.02166        47.78393         0.21595
C         52.27313        49.91874         0.36614
C         50.98810        50.65092         0.56978
C         52.23489        52.86819         0.13544
C         50.99448        52.16025         0.58984
C         52.21059        54.35035         0.17013
C         51.05100        55.06463         0.33011
C         52.24296        57.20484         0.01435
C         51.04122        56.52434         0.14357
C         52.29803        58.61854        -0.32656
C         51.05614        59.39229        -0.36158
C         52.36692        61.48223        -0.26962
C         51.14938        60.77507        -0.48212
C         55.09206        40.05741        -1.45447
C         54.91334        41.35415        -0.79354
C         53.72481        42.20130        -1.06109
C         54.86051        44.20712        -0.12473
C         53.74012        43.60189        -0.67462
C         54.81559        45.63444         0.23956
C         53.56482        46.40965         0.06318
C         54.80941        48.55459         0.22224
C         53.55529        47.80329         0.23442
C         54.79606        49.93566         0.21264
C         53.55580        50.69414         0.61562
C         54.82485        52.83806         0.08650
C         53.52867        52.10825         0.04031
C         54.81410        54.30802         0.05567
C         53.50638        55.05413        -0.00986
C         54.74412        57.23087         0.71145
C         53.48545        56.49723         0.38049
C         54.80306        58.69502         0.49781
C         53.64424        59.40524        -0.07226
C         54.74343        61.57314         0.68522
C         53.55251        60.85652         0.05188
C         54.84899        63.04878         0.38037
C         57.48237        40.01243        -0.88956
C         56.27001        39.38381        -1.35788
C         57.46141        41.36773        -0.56571
C         56.17906        42.03302        -0.28961
C         57.29748        44.27022        -0.65694
C         56.19182        43.50662         0.09641
C         57.38684        45.70496        -0.14926
C         56.13149        46.39477         0.27133
C         57.29660        48.56353         0.17091
C         56.09258        47.86704         0.13709
C         57.32663        49.98961         0.13274
C         56.03623        50.69061        -0.21758
C         57.27989        52.86306         0.23350
C         56.02466        52.16080         0.12653
C         57.26107        54.30003         0.37592
C         56.05137        55.01408         0.38756
C         57.24276        57.22439         0.43921
C         56.04410        56.43889         0.92280
C         57.27890        58.68199         0.79292
C         56.00452        59.42275         0.59983
C         57.29501        61.50534         0.12048
C         56.03084        60.81575         0.45721
C         57.29010        63.00147        -0.09705
C         55.99520        63.69902         0.12304
C         59.95503        37.16596        -0.86975
C         58.77386        37.87036        -0.98068
C         59.96091        39.98094        -0.70834
C         58.74749        39.28679        -0.88963
C         59.95840        41.43584        -0.61420
C         58.68142        42.14754        -0.57205
C         59.84502        44.31632        -0.79650
C         58.62099        43.53251        -0.59217
C         59.81498        45.80247        -0.59506
C         58.54107        46.41582        -0.15140
C         59.83479        48.59102         0.25345
C         58.56567        47.79737         0.48207
C         59.79767        50.00088         0.32063
C         58.52541        50.70227         0.24647
C         59.75047        52.86100         0.32342
C         58.51482        52.15258         0.25605
C         59.71065        54.28782         0.35770
C         58.51671        55.00051         0.41874
C         59.78132        57.23823         0.42869
C         58.53535        56.48016         0.28994
C         59.82504        58.64822         0.46640
C         58.57659        59.41215         0.72355
C         59.77892        61.54189         0.31130
C         58.59271        60.85940         0.40734
C         59.80355        62.97803         0.07280
C         58.59295        63.71204        -0.00444
C         59.86714        65.77787        -0.17476
C         58.65278        65.11789        -0.07831
C         62.48855        35.69575        -0.60455
C         62.43757        37.11336        -0.52828
C         61.19298        37.83211        -0.67902
C         62.43532        39.94542        -0.46527
C         61.19472        39.25534        -0.62787
C         62.47841        41.43790        -0.66675
C         61.14816        42.12597        -0.51934
C         62.35029        44.35371        -0.17129
C         61.17758        43.59215        -0.64955
C         62.33956        45.73145        -0.07780
C         61.10873        46.52059        -0.31994
C         62.29759        48.60503         0.34263
C         61.07412        47.92239         0.16736
C         62.27543        50.03211         0.50034
C         61.02674        50.72686         0.39024
C         62.25140        52.84681         0.49488
C         61.01943        52.15931         0.38669
C         62.27190        54.30750         0.32778
C         60.96742        55.04386         0.23890
C         62.27368        57.14715         0.22863
C         61.02146        56.46908         0.74715
C         62.26553        58.64897         0.08380
C         61.02372        59.36057         0.39312
C         62.32072        61.51071         0.14105
C         61.07638        60.83646         0.68738
C         62.29979        62.90390        -0.03629
C         61.05757        63.65659        -0.02744
C         62.35409        65.75138        -0.44535
C         61.09010        65.06726        -0.19854
C         62.43298        67.14957        -0.62339
C         64.88392        35.69262        -0.15190
C         63.67257        35.01074        -0.43640
C         64.86220        37.10401        -0.05067
C         63.64300        37.82223        -0.26999
C         64.86326        39.99175         0.05243
C         63.63233        39.25956        -0.25077
C         64.84185        41.35738         0.24033
C         63.55947        42.09151         0.16826
C         64.76581        44.32640         0.56428
C         63.51321        43.58649         0.33472
C         64.75168        45.70426         0.49326
C         63.53588        46.46029         0.28883
C         64.78347        48.58218         0.65955
C         63.54293        47.86703         0.38176
C         64.73355        50.02256         1.03538
C         63.47681        50.75090         0.74777
C         64.67666        52.91604         1.09191
C         63.48401        52.16059         0.74984
C         64.49479        54.27560         1.32222
C         63.45311        55.06520         0.77915
C         64.75048        57.18777         0.30885
C         63.54845        56.45756         0.52381
C         64.74447        58.58722         0.03283
C         63.55186        59.35596         0.08461
C         64.77488        61.48128        -0.21999
C         63.54381        60.77749        -0.01233
C         64.77079        62.87444        -0.23529
C         63.53178        63.60590        -0.25800
C         64.83459        65.62063        -1.00465
C         63.55266        64.99159        -0.49800
C         64.86883        67.12528        -0.90170
C         63.66109        67.81018        -0.80090
C         67.47206        32.94197        -0.19529
C         66.24212        33.59478        -0.27456
C         67.28304        35.66826         0.47969
C         66.13501        34.97223         0.02486
C         67.25369        37.10208         0.62633
C         66.07083        37.81794         0.28106
C         67.30587        39.90495         0.55137
C         66.08849        39.23545         0.31320
C         67.32422        41.38191         0.41352
C         66.02490        42.02391         0.91027
C         67.31692        44.28190         0.80588
C         66.00295        43.55974         0.89498
C         67.29788        45.73380         0.42710
C         66.01412        46.47457         0.43667
C         67.24797        48.61795         1.09129
C         65.98497        47.92279         0.72584
C         67.30556        50.09450         1.00239
C         66.02598        50.79249         1.27541
C         67.32963        52.97949         0.85269
C         66.05527        52.31916         1.46812
C         67.37986        54.39781         0.57415
C         66.31690        55.24558         0.91074
C         67.25114        57.05055        -0.54355
C         66.00502        56.40963         0.13071
C         67.02989        58.48278        -0.81154
C         65.97393        59.24309        -0.40014
C         67.25841        61.39659         0.15304
C         66.06360        60.75766        -0.60075
C         67.17872        62.88111         0.40478
C         66.01487        63.62002        -0.13790
C         67.30519        65.71075        -0.40168
C         66.06747        64.96290        -0.43361
C         67.36598        67.02533        -0.81632
C         66.14538        67.78662        -1.03231
C         67.49930        69.83284        -1.22728
C         66.24935        69.16553        -1.21754
C         70.41353        32.66591        -1.19177
C         69.92913        32.84510         0.23300
C         68.61215        33.60130         0.26838
C         69.59885        35.60442         1.33842
C         68.52016        34.95955         0.69214
C         69.51422        37.05948         1.72881
C         68.42815        37.80393         1.00152
C         69.77069        39.91973         1.01241
C         68.49981        39.20731         0.85224
C         69.89061        41.30707         0.71930
C         68.64574        42.08625         0.36570
C         69.60694        44.36831         0.05343
C         68.58755        43.57746         0.50079
C         69.72532        45.78243         0.36758
C         68.56622        46.46297         0.61659
C         69.80255        48.61954         0.72988
C         68.56078        47.87549         1.00700
C         69.75557        50.03171         0.61775
C         68.49427        50.76681         0.77496
C         69.74355        52.90819         0.32597
C         68.49353        52.23068         0.64589
C         69.79914        54.32788         0.18382
C         68.57232        55.08448         0.11352
C         69.77987        57.25918         0.12229
C         68.56097        56.46392        -0.22036
C         69.97213        58.72369         0.00263
C         68.91515        59.59108        -0.43465
C         69.73773        61.39639         0.92406
C         68.61952        60.77798         0.18881
C         69.68944        62.95506         1.06581
C         68.41750        63.67472         0.71316
C         69.82087        65.74429         0.11004
C         68.49640        65.08637         0.22858
C         69.88969        67.04796        -0.41298
C         68.70727        67.65152        -1.14435
C         69.98360        69.84923        -1.18182
C         68.70198        69.16423        -1.12004
C         70.07138        71.20682        -1.56463
C         72.73484        32.66010        -0.43066
C         71.72714        32.56338        -1.47453
C         72.40257        33.05638         0.81978
C         71.01174        33.45447         1.11209
C         71.96626        35.61973         2.16355
C         70.78952        34.86585         1.74834
C         71.99974        36.98489         2.01025
C         70.85426        37.74468         1.65182
C         72.16036        39.83145         1.59345
C         70.92632        39.15189         1.40311
C         72.25886        41.18911         1.39435
C         71.16226        41.93861         0.91346
C         72.19704        44.26599         1.22416
C         71.42567        43.33342         0.57254
C         72.13382        45.68949         0.98177
C         71.02095        46.41388         0.58648
C         72.18909        48.60699         0.30270
C         71.00655        47.88613         0.54770
C         72.16148        49.99002         0.20481
C         70.96369        50.72442         0.33757
C         72.15586        52.85980        -0.08788
C         70.95704        52.17468         0.19021
C         72.21449        54.24829        -0.11073
C         71.04857        54.99960         0.07210
C         72.34765        57.22420         0.31238
C         71.09558        56.45654         0.32647
C         72.34341        58.56282         0.56752
C         71.12443        59.33725         0.52122
C         72.18176        61.53180         1.12776
C         71.06690        60.75587         0.82650
C         72.13083        62.94370         1.18640
C         70.95943        63.67503         0.99814
C         72.18597        65.82389         0.63107
C         70.98279        65.08754         0.60219
C         72.23962        67.13421         0.18015
C         71.11105        67.76088        -0.38773
C         72.41647        69.80217        -1.02163
C         71.18171        69.13985        -0.88360
C         72.48046        71.13560        -1.41796
C         71.30164        71.84385        -1.67926
O         66.35211        56.19202        -1.29535
O         40.31868        51.76542        -0.79548
O         66.69443        46.10631        -0.86383
O         54.19665        54.82265        -1.26531
O         66.68627        44.06025         2.10458
O         55.51723        45.93187         1.51292
O         55.31024        41.29846         0.63062
O         63.14218        42.64726         1.45632
O         60.63531        43.96981        -1.97606
O         52.71672        52.29740        -1.15115
O         47.21627        53.67155         1.76282
O         70.71445        43.77423        -0.55826
O         42.03593        54.04065        -0.90652
O         57.24494        62.09318        -1.25188
O         70.25093        56.83882         1.45425
O         57.69706        56.93215        -0.88837
O         70.61484        33.58223         2.47140
O         53.79872        56.80751         1.79629
O         67.90375        41.73436        -0.87978
O         69.50108        62.05595         2.19134
O         68.09497        59.10648        -1.46005
O         61.71954        54.78449        -0.96786
O         62.14552        57.72429        -1.08993
O         66.84345        61.90574         1.45164
O         48.66254        45.45898        -0.12282
O         48.70052        47.85862         0.95535
O         45.39276        47.74696         0.39406
O         65.51416        54.96230         2.00768
O         65.27277        50.20428         2.40204
O         68.16569        64.77272         1.64959
O         67.90643        48.09859         2.31120
O         60.51357        46.49369        -1.67860
O         38.51156        52.65825         0.91957
O         53.25698        58.89942        -1.39053
O         57.97487        59.03883         2.03061
O         46.89737        46.95064        -2.88478
O         51.04350        51.41155         1.84326
O         41.99313        49.81757        -1.74518
O         50.93496        46.72497         1.22139
O         43.33536        51.36384         1.44637
O         58.55875        47.56028         1.92965
H         57.70912        47.12425         2.16115
O         69.13000        37.09655         3.16426
H         68.20104        36.78876         3.23076
O         48.25362        56.85366         1.75721
H         48.88645        56.28852         2.26617
O         47.51152        56.79180        -1.82275
H         46.83062        57.24286        -2.36382
O         64.85948        65.33134        -2.45664
H         64.04181        65.71331        -2.84125
O         69.69760        31.50918         0.76137
H         69.56136        31.60584         1.72880
O         49.71971        54.51625         2.20417
H         48.88425        54.06139         2.48883
O         66.23345        52.54380         2.88551
H         65.74057        51.82982         3.35197
O         53.68050        50.90617         2.06032
H         53.42408        50.07774         2.51825
O         61.12693        56.36044         2.20143
H         60.86156        57.21649         2.60117
O         65.94965        41.61721         2.30350
H         65.14711        42.03363         2.68724
O         56.55605        43.55098         1.48866
H         55.95194        42.94078         1.96537
O         62.90102        41.66957        -2.05032
H         62.15925        41.42574        -2.64310
O         66.29358        61.03537        -2.00299
H         65.60920        60.57223        -2.52921
O         61.19069        60.94809         2.15239
H         61.31080        61.89722         2.36901
O         56.23935        56.30666         2.35498
H         55.34325        56.24792         2.76376
O         55.98193        50.67901        -1.69569
H         56.08742        49.74905        -1.98893
O         56.89123        44.31302        -2.05176
H         57.65300        44.63032        -2.58291
O         54.47857        61.49930         2.13451
H         55.31855        61.67738         2.60797
O         68.93527        67.29779        -2.56197
H         68.18465        67.66329        -3.07712
H         38.48867        48.56441         2.71853
H         37.35445        49.46945         4.69372
H         38.30561        53.52409         3.56128
H         37.33746        51.92415         5.17037
H         39.17043        47.92880         0.94427
H         39.28913        54.84600         2.27789
H         40.82446        46.95203        -0.53052
H         41.16523        56.17036         1.52671
H         44.59542        45.71416        -3.08060
H         42.48948        46.42085        -1.95216
H         44.80054        58.34946        -0.00492
H         42.70057        57.17216         0.48833
H         47.70933        44.89007        -4.09042
H         46.43550        59.27214        -0.50067
H         49.64269        43.43118        -3.50861
H         48.54140        60.44916        -0.31667
H         52.57735        40.59733        -1.92729
H         50.59208        41.97249        -2.39840
H         52.30715        62.57977        -0.23858
H         50.23964        61.37870        -0.60473
H         54.25503        39.60356        -2.00250
H         53.93240        63.64138         0.52324
H         56.33883        38.38168        -1.80326
H         55.97057        64.79438         0.01743
H         59.91825        36.06976        -0.91649
H         57.83591        37.31260        -1.10200
H         59.86065        66.87112        -0.27308
H         57.72601        65.70653        -0.10684
H         61.57431        35.12185        -0.80456
H         61.52728        67.76635        -0.55746
H         63.66039        33.91497        -0.50342
H         63.65010        68.90949        -0.81591
H         67.55328        31.88750        -0.49450
H         65.37088        33.03436        -0.63746
H         67.48251        70.92936        -1.30243
H         65.34294        69.77601        -1.32781
H         69.65762        32.54800        -1.98198
H         69.15946        71.77145        -1.80210
H         73.77407        32.40137        -0.67647
H         72.06245        32.38195        -2.50570
H         73.16125        33.14472         1.60969
H         72.83240        35.08169         2.56875
H         72.95324        37.49158         2.21142
H         73.05345        39.28898         1.92504
H         73.22137        41.69688         1.54822
H         72.87831        43.93154         2.02158
H         73.01025        46.26444         1.32264
H         73.13936        48.07315         0.16431
H         73.10874        50.50456         0.00234
H         73.09326        52.30842        -0.22837
H         73.18700        54.74255        -0.23672
H         73.30392        56.69725         0.18794
H         73.29943        59.09118         0.69013
H         73.17383        61.06078         1.17160
H         73.09517        63.46731         1.24068
H         73.10035        65.37316         1.03844
H         73.19254        67.67423         0.25730
H         73.35519        69.26713        -0.82477
H         73.45590        71.63017        -1.52296
H         71.34766        72.89694        -1.98921
