         281
 CSIRO Nanostructure Databank - Neutral Graphene Oxide Data Set
C        -11.09106         0.64093         0.62095
C         -9.88143         1.43029         0.17834
C         -8.58445         0.69231         0.49267
C         -7.34756         1.42398         0.07583
C         -6.30001         0.66150        -0.68519
C         -5.04685         1.37935        -1.15080
C         -3.75553         0.62444        -1.13962
C         -2.40178         1.30788        -1.31794
C         -1.31842         0.78973        -0.38391
C         -0.03413         1.54409        -0.53517
C          1.23927         0.78831        -0.49368
C          2.48358         1.40567         0.05045
C          3.69115         0.76194        -0.02773
C          4.96974         1.45451         0.14529
C          6.19282         0.74058         0.18854
C          7.41173         1.44383         0.23888
C          8.62451         0.68123         0.69338
C          9.96972         1.68322        -1.12461
C         11.12120         0.77834        -0.92635
C         -9.83456         2.89571         0.67947
C         -8.62560         3.67418         0.15749
C         -7.34763         2.92885        -0.06223
C         -6.19156         3.65099        -0.69015
C         -5.04294         2.88420        -1.28372
C         -3.74553         3.63458        -1.41937
C         -2.42189         2.89765        -1.37570
C         -1.18403         3.69737        -1.03643
C         -0.20493         2.98095        -0.08906
C          1.16249         3.61825         0.19215
C          2.42242         2.83013         0.46316
C          3.74768         3.50714         0.83915
C          5.00168         2.86501         0.32307
C          6.21911         3.56853         0.31155
C          7.43497         2.86310         0.10177
C          8.66251         3.61690        -0.19108
C          9.90966         2.90579        -0.49031
C         -8.62777         5.02379         0.06357
C         -7.32932         5.80514        -0.07364
C         -6.40929         5.11310        -1.13840
C         -5.09138         5.89337        -1.30822
C         -3.76370         5.17022        -1.21400
C         -2.55860         5.82172        -0.55175
C         -1.19714         5.24796        -0.99359
C         -0.03839         5.79823        -0.14829
C          1.27300         5.06005        -0.17644
C          2.55368         5.76197         0.10045
C          3.71409         5.03144         0.72220
C          5.00228         5.77649         0.76488
C          6.32437         5.00110         0.85054
C          7.49258         5.77628         0.24179
C          8.64182         4.99807        -0.16006
C         -7.45085         7.30877        -0.24137
C         -6.35223         8.05558        -0.54893
C         -5.20244         7.41659        -1.24291
C         -3.72526         8.00811         0.54761
C         -2.52959         7.20356         0.07605
C         -1.27550         8.07098        -0.21741
C         -0.00610         7.28522         0.01087
C          1.32143         7.82236        -0.41731
C          2.50208         7.26804         0.37128
C          3.80742         7.97851         0.05706
C          5.05625         7.21269         0.32487
C          6.31366         7.89259         0.85625
C          7.48841         7.14632         0.25071
C         -6.20557         9.49408        -0.28309
C         -5.03330        10.11663         0.02398
C         -3.73647         9.47342         0.26450
C         -2.54848        10.13140         0.35815
C         -1.26852         9.37039         0.68379
C         -0.00974        10.23408         0.45411
C          1.27054         9.94427         0.68488
C          2.56948         9.99278         0.98381
C          3.75260         9.52057         0.09333
C          5.10180        10.08628         0.50665
C          6.23761         9.39294         0.68798
C        -11.09606        -0.68371         0.82919
C         -9.88169        -1.58907         0.89479
C         -8.58567        -0.82896         0.55252
C         -7.44161        -1.57039        -0.05384
C         -6.33267        -0.83671        -0.76154
C         -5.01424        -1.61440        -1.07847
C         -3.82339        -0.77838        -0.56772
C         -2.60393        -1.37831         0.07126
C         -1.31430        -0.59439         0.18883
C          0.07163        -1.29289         0.43502
C          1.05374        -0.72991        -0.62433
C          2.42356        -1.39414        -0.72434
C          3.70876        -0.64967        -0.51113
C          5.04436        -1.40374        -0.49075
C          6.11550        -0.76183         0.42595
C          7.42902        -1.52018         0.18969
C          8.71173        -0.77359         0.24028
C          9.80451        -1.37886        -0.65870
C         11.07227        -0.55003        -0.66369
C        -10.05212        -2.85434        -0.00653
C         -8.82869        -3.76058        -0.00839
C         -7.56649        -3.03051        -0.34695
C         -6.28646        -3.78974        -0.30402
C         -4.98758        -3.05359        -0.48909
C         -3.73553        -3.66043         0.02956
C         -2.52544        -2.84520         0.32282
C         -1.24143        -3.59511         0.45077
C          0.05421        -2.84764         0.31676
C          1.19616        -3.60854        -0.28795
C          2.41723        -2.89866        -0.80990
C          3.70334        -3.65162        -0.75565
C          4.91319        -2.93648        -0.15957
C          6.21039        -3.68646        -0.47300
C          7.48679        -2.90549        -0.42942
C          8.79586        -3.60825        -0.27362
C          9.92744        -2.86444        -0.34661
C         -8.83119        -5.11628         0.02174
C         -7.54208        -5.94531        -0.16265
C         -6.42143        -5.08495         0.55490
C         -5.04727        -5.66338         0.94594
C         -3.74836        -4.96250         0.75978
C         -2.51718        -5.78123         0.55158
C         -1.27091        -5.07716         0.23930
C         -0.16209        -5.76838        -0.15424
C          1.09923        -5.09160        -0.64977
C          2.34830        -5.74474        -0.04589
C          3.66928        -5.13208        -0.43967
C          4.94371        -5.83264        -0.06576
C          6.23724        -5.11907        -0.14408
C          7.45160        -5.82077        -0.02467
C          8.79775        -5.13681        -0.28510
C         -7.66300        -7.45908         0.10481
C         -6.79535        -8.24260         0.79883
C         -4.93001        -7.10033         1.21383
C         -3.83955        -7.84699         0.86173
C         -2.62210        -7.14975         0.46996
C         -1.48020        -8.02532         0.00128
C         -0.17337        -7.25764        -0.19625
C          1.10342        -7.97729         0.10631
C          2.32921        -7.16466         0.41049
C          3.60498        -7.91129         0.70507
C          4.90621        -7.14464         0.65391
C          6.21949        -7.91354         0.63802
C          7.43372        -7.20352         0.20234
C         -6.38937        -9.63394         0.59131
C         -5.10484       -10.07588         0.73763
C         -3.85447        -9.32234         0.91806
C         -2.65060        -9.97104         0.98990
C         -1.35301        -9.17921         1.04061
C         -0.08993       -10.00331         0.83602
C          1.07783        -9.42100         0.49114
C          2.36365       -10.17957         0.20356
C          3.62242        -9.41545         0.64075
C          4.95070       -10.05732         0.45777
C          6.12111        -9.38581         0.51588
O          3.76658         3.23629         2.35701
O          4.64258        -3.14617         1.24110
H          5.20706        -2.55501         1.80231
O         -1.98260        -3.16801         1.64083
O         -4.88590        -1.75036        -2.48722
H         -5.60476        -2.34321        -2.79775
O         -4.24167         5.68271        -2.48582
O         -7.64891         1.17667         1.49879
O         -4.56684         7.48559         1.27418
O          6.87943        -3.25332        -1.70516
O          0.55939        -0.92905         1.71710
H          0.00671        -1.35569         2.40543
O          9.37512         1.09754         1.55522
O         -6.88367        -0.04651        -1.84674
O         -7.47888        -1.32526         1.38613
O          4.34815        -5.95143        -1.43670
O         -4.41140         8.08708        -1.89259
O          1.50337         3.22131         1.55190
O          0.65049        -7.80932        -1.29394
O         -4.07959        -3.85097        -1.36552
O          4.16932         5.64689         1.96892
O         -4.40110        -4.90477         2.06210
O          3.47120        -8.72144         1.91288
O         -1.87008        -8.58737        -1.26582
H         -1.07276        -8.58460        -1.84391
O          1.42934         8.34512        -1.52799
O          1.09382        -3.43109         1.15880
O         -1.41503         3.25882        -2.38598
O          3.11882        -0.77873        -1.85280
O          8.29791        -1.58912         1.37168
O         -7.00644        -3.56453        -1.57907
O         -1.56595         0.57471         1.02616
O         -2.51623         5.97606         0.88182
O          2.22366         7.45639         1.77003
H          2.89152         6.93298         2.28180
O          2.43238       -10.41240        -1.21288
H          2.01205        -9.65831        -1.67943
O          2.21809         5.34184        -1.25485
O          5.67307        -7.25162         1.85995
O         -7.26519        -5.97570        -1.58123
H         -6.43384        -6.46823        -1.73875
O          6.33652         7.67015         2.28924
H          6.51611         6.70321         2.46587
O        -10.23185        -2.37010        -1.34601
H        -10.16955        -3.12705        -1.96494
O          6.66840         4.90808         2.23009
O          9.25008        -1.32373        -2.01902
H          9.80713        -1.87911        -2.60406
O          9.78645        -5.64861         0.60649
H          9.56572        -5.36522         1.51753
O         -1.34243         8.95791         2.05287
H         -0.63812         8.29790         2.23216
O          5.86344        -0.94379         1.86430
O          2.15062        -6.05580         1.35592
O         -6.21127         3.43616         0.74270
O         -4.52751         0.75665        -2.35837
O         -0.13331         6.41745         1.16970
O         -6.04558        -7.63860         1.83312
O          0.76338         1.43415        -1.74260
O          0.39577        -1.03815        -1.86886
H          0.46063        -0.23383        -2.44509
O         -7.10170         5.11209        -2.39188
H         -6.45025         4.88022        -3.09038
O          1.18185        -5.25054        -2.10862
O         -4.58097         3.30568        -2.58226
O         -6.73684         5.73563         1.24292
H         -5.94748         6.32614         1.30509
O         -7.00386        -4.66399         1.80484
H         -6.27171        -4.46305         2.43209
O         -1.37429         8.46409        -1.58758
H         -0.46625         8.56072        -1.96057
O         -0.95111         3.03702         1.13719
H         -0.34046         2.84945         1.88739
O          4.61059         7.44576        -1.03954
O          3.08636        -3.35437        -2.03014
O          0.32685        -4.22168        -2.67646
H          0.97670        -3.64343        -3.15009
O          4.63841         0.25407         3.41499
H          4.90955         1.19877         3.21355
O         -1.94277         0.86042        -2.60622
H         -2.66611         1.03141        -3.25132
O         -3.69860        -0.79835         0.87436
O          5.59364        -1.21768        -1.79906
H          4.85765        -1.32475        -2.44688
O          5.07614         2.93477         2.80817
H          5.60784         3.82105         2.77404
O          3.55611        10.01119        -1.23852
H          2.84765         9.47350        -1.66837
O         -9.94595         1.52083        -1.27173
H        -10.14340         0.63241        -1.63743
O         -9.80206        -2.04696         2.25521
H         -8.84937        -2.06600         2.50670
O         -9.78578         2.90852         2.10585
H         -8.91024         2.55017         2.37936
O          4.47069        -0.35872         2.18282
O          8.92888         1.29357        -1.90013
H          9.05335         0.36819        -2.23581
O         -1.23545        -8.52492         2.32779
H         -1.21901        -9.20798         3.02954
O         -0.88997         5.72218        -2.30944
H         -1.23243         5.06460        -2.96017
H         12.01633        -1.06890        -0.43357
H         12.10082         1.27413        -0.82729
H         10.82307         3.27593        -0.00232
H          9.55505         5.54929        -0.43308
H          8.34727         7.70007        -0.16157
H          7.16647         9.94942         0.89265
H          5.16390        11.18617         0.48409
H          2.83656        10.34685         1.99767
H         -0.21025        11.23585         0.02441
H         -2.50132        11.22212         0.20617
H         -5.05533        11.21075         0.15501
H         -7.12120        10.10602        -0.32179
H         -8.31239         7.79277         0.24892
H         -9.55376         5.58409         0.26829
H        -10.77745         3.41167         0.36869
H        -12.04539         1.18980         0.66146
H        -12.04817        -1.17178         1.09167
H        -10.96238        -3.42531         0.32649
H         -9.77728        -5.65807         0.17951
H         -8.26963        -7.95970        -0.66843
H         -7.15591       -10.36377         0.28559
H         -4.94724       -11.15716         0.58589
H         -2.61285       -11.07216         0.99644
H         -0.11955       -11.08370         1.05528
H          2.34826       -11.17827         0.71013
H          4.96208       -11.14169         0.27153
H          7.06213        -9.93393         0.35378
H          8.37991        -7.76346         0.14579
H          9.11724        -5.44735        -1.31936
H         10.91971        -3.33679        -0.28011
