         600
 CSIRO Nanostructure Databank - Neutral Graphene Oxide Data Set
C         23.18947        27.18646        -1.07298
C         23.17598        28.59370        -1.05586
C         23.03030        31.58453        -1.10721
C         23.02306        32.93179        -1.18866
C         22.97541        35.90414        -0.89289
C         22.96608        37.28556        -0.84605
C         22.95138        40.22992        -0.77566
C         22.94958        41.61004        -0.71104
C         23.01252        44.56304        -0.80426
C         23.05570        45.93835        -0.82507
C         25.53084        24.48916        -0.31515
C         24.45082        25.06357        -0.90285
C         25.67834        27.19423        -1.43839
C         24.38338        26.48933        -1.12201
C         25.60922        28.72358        -1.27558
C         24.36146        29.35578        -1.10814
C         25.48413        31.60914        -1.32921
C         24.30177        30.84271        -0.74250
C         25.45820        33.07576        -0.97845
C         24.23271        33.73802        -1.01107
C         25.41707        35.91017        -0.86585
C         24.19140        35.17569        -0.91103
C         25.40547        37.34185        -0.86124
C         24.16724        38.04136        -0.83793
C         25.39084        40.20401        -0.71727
C         24.16004        39.48920        -0.78298
C         25.38861        41.62491        -0.56203
C         24.15651        42.34413        -0.59000
C         25.38304        44.45683        -0.17743
C         24.17047        43.78315        -0.51462
C         25.37397        45.86664        -0.04953
C         24.24532        46.63317        -0.44799
C         25.50487        48.71223        -0.05809
C         24.33461        48.04617        -0.46652
C         27.88410        23.34123         1.12553
C         27.91904        24.62178         0.56659
C         26.61852        25.36800         0.27226
C         28.10872        26.88382        -0.96540
C         26.82964        26.52658        -0.67319
C         28.12610        28.98039        -1.31991
C         26.82007        29.52319        -1.23046
C         27.96034        31.63957        -0.72799
C         26.78013        30.92387        -1.00777
C         27.92754        33.09469        -0.69756
C         26.68762        33.78535        -0.82581
C         27.88855        35.93703        -0.83306
C         26.66065        35.21201        -0.81285
C         27.86326        37.35106        -0.96849
C         26.64630        38.06577        -0.91799
C         27.84788        40.23998        -0.80653
C         26.64001        39.50630        -0.83531
C         27.86414        41.63332        -0.52862
C         26.62482        42.33067        -0.39602
C         27.87087        44.40181         0.05378
C         26.62777        43.72530        -0.11600
C         27.87490        45.78633         0.54605
C         26.53491        46.56417         0.49992
C         27.80815        48.66937         1.10654
C         26.59223        48.02228         0.45918
C         27.86798        50.15770         0.90905
C         30.32026        23.28032         1.35473
C         29.05796        22.66678         1.47355
C         30.38642        24.62305         0.87410
C         29.19181        25.25682         0.42993
C         30.44874        27.34934        -0.15643
C         29.28185        26.52666        -0.21974
C         30.45890        28.77606        -0.39379
C         29.26276        29.56164        -0.72043
C         30.35956        31.69339         0.06573
C         29.17095        30.94585        -0.46175
C         30.39017        33.11816        -0.43423
C         29.14888        33.81537        -0.64162
C         30.36566        35.95742        -0.90687
C         29.13502        35.23923        -0.79643
C         30.40507        37.35063        -1.04120
C         29.12605        38.05456        -1.22050
C         30.38707        40.27552        -0.87731
C         29.11580        39.57842        -1.13003
C         30.34644        41.65737        -0.66329
C         29.10614        42.35066        -0.49048
C         30.35072        44.48628        -0.08203
C         29.09855        43.74974        -0.19979
C         30.34038        45.88663         0.22020
C         29.11740        46.58483         0.49170
C         30.31263        48.72261         0.58727
C         29.09560        47.96809         0.68641
C         30.30697        50.14740         0.65033
C         29.02734        50.82476         0.74188
C         32.82218        20.51687         2.04753
C         31.60518        21.22886         1.99131
C         32.78010        23.37564         1.76496
C         31.54392        22.59086         1.70980
C         32.83889        24.72015         1.17628
C         31.63021        25.34176         0.76240
C         32.88056        27.42006         0.33932
C         31.64759        26.70590         0.32266
C         32.88770        28.82255         0.07581
C         31.65282        29.51247        -0.14825
C         32.85679        31.66763        -0.12797
C         31.65807        30.95093        -0.15100
C         32.85786        33.10857        -0.31599
C         31.60978        33.77244        -0.56673
C         32.92135        35.94806        -0.97577
C         31.60987        35.18050        -0.99630
C         32.87069        37.41229        -0.84545
C         31.63384        38.10344        -0.97626
C         32.85302        40.24843        -0.67036
C         31.62020        39.53897        -0.88758
C         32.86271        41.66766        -0.57262
C         31.60889        42.44745        -0.87658
C         32.81028        44.51786        -0.11994
C         31.57953        43.83316        -0.28855
C         32.80764        45.92048         0.12991
C         31.56402        46.61015         0.26113
C         32.77190        48.75967         0.38346
C         31.54822        48.02798         0.42433
C         32.75010        50.17297         0.41670
C         31.52831        50.87461         0.56888
C         32.72794        53.02830         0.73609
C         31.57763        52.31052         0.77887
C         35.30077        18.98332         1.56858
C         35.28665        20.39970         1.61882
C         34.06088        21.12852         1.85340
C         35.35219        23.27736         1.47036
C         34.12298        22.59127         1.87788
C         35.33852        24.67877         1.23367
C         34.08910        25.37677         1.04582
C         35.34323        27.44982         0.56782
C         34.10616        26.74933         0.64763
C         35.34688        28.85322         0.30154
C         34.11484        29.54432         0.10882
C         35.33165        31.67562         0.04363
C         34.11709        30.96734        -0.01979
C         35.30421        33.16530         0.26209
C         34.06796        33.83781        -0.28100
C         35.33359        35.96032        -0.41327
C         34.12075        35.22533        -0.52098
C         35.32711        37.37603        -0.52156
C         34.08753        38.10138        -0.62333
C         35.32105        40.22321        -0.41065
C         34.08263        39.52682        -0.54901
C         35.31560        41.66791        -0.28139
C         34.06699        42.37481        -0.36218
C         35.27954        44.49764        -0.01824
C         34.05813        43.80059        -0.19476
C         35.27655        45.91692         0.17351
C         34.03596        46.64317         0.22596
C         35.25061        48.79746         0.43585
C         34.02614        48.06027         0.32143
C         35.29026        50.19712         0.38551
C         34.01057        50.90765         0.19739
C         35.30116        53.11821         0.51191
C         34.00231        52.42751         0.31128
C         35.34081        54.51235         0.68177
C         37.72333        18.94947         1.27236
C         36.47527        18.28269         1.38811
C         37.74169        20.37177         1.31958
C         36.52137        21.09843         1.45952
C         37.80286        23.22484         1.31508
C         36.54830        22.53519         1.38907
C         37.82216        24.66769         1.21055
C         36.57895        25.36716         1.06557
C         37.81579        27.46652         0.65889
C         36.57874        26.76307         0.77351
C         37.81856        28.87015         0.40156
C         36.57698        29.56760         0.25468
C         37.81570        31.70282         0.04119
C         36.56739        30.98640         0.11871
C         37.80482        33.13049        -0.12411
C         36.58832        33.85393        -0.12253
C         37.81949        35.95723        -0.46733
C         36.58467        35.24789        -0.30430
C         37.81142        37.39190        -0.53921
C         36.56730        38.09721        -0.51039
C         37.81258        40.30708        -0.61118
C         36.53719        39.51432        -0.46089
C         37.76798        41.58185         0.21672
C         36.51117        42.36816        -0.06794
C         37.76097        44.49988         0.08903
C         36.52359        43.78378         0.02054
C         37.72749        45.90784         0.17704
C         36.50085        46.59785         0.32017
C         37.79935        48.82239         0.59985
C         36.49270        48.03958         0.62851
C         37.76406        50.27404         0.39908
C         36.52131        50.94459         0.40398
C         37.76503        53.09808         0.42567
C         36.51769        52.39308         0.41982
C         37.77609        54.51863         0.55643
C         36.54671        55.19654         0.71009
C         40.13898        16.11075         0.81736
C         38.96720        16.80821         0.98753
C         40.19597        18.93792         1.06214
C         38.95931        18.22728         1.10786
C         40.22247        20.35851         1.18970
C         38.99598        21.07516         1.28985
C         40.26257        23.21113         1.74064
C         38.99894        22.49496         1.35938
C         40.30835        24.66490         1.29824
C         39.05254        25.36853         1.14759
C         40.27024        27.50085         0.78615
C         39.05207        26.77998         0.86459
C         40.28158        28.87537         0.46868
C         39.04816        29.57809         0.29781
C         40.28276        31.69739        -0.13321
C         39.04157        30.99578         0.07100
C         40.26039        33.07691        -0.38910
C         39.03812        33.82617        -0.34645
C         40.28291        35.97507        -0.92455
C         39.03279        35.23438        -0.50968
C         40.29449        37.41709        -0.51176
C         39.06090        38.11143        -0.48359
C         40.27384        40.21672        -0.14827
C         39.07186        39.52297        -0.34305
C         40.26505        41.66252         0.00832
C         39.04978        42.36585         0.06768
C         40.26447        44.46936         0.14379
C         39.03244        43.78176         0.08952
C         40.30450        45.92041        -0.06704
C         38.95588        46.68726        -0.04573
C         40.22248        48.80614         0.07502
C         39.02272        48.11317         0.21887
C         40.24065        50.24888         0.13689
C         39.00252        50.96394         0.24399
C         40.24755        53.09085         0.23946
C         39.00800        52.39146         0.28618
C         40.25152        54.52289         0.36006
C         39.03457        55.23275         0.53419
C         40.26242        57.33439         0.67952
C         39.07291        56.64936         0.68666
C         42.59704        16.07446         0.56498
C         41.38445        16.79549         0.75346
C         42.67323        18.89471         0.81186
C         41.41837        18.20834         0.87955
C         42.72957        20.31138         1.01216
C         41.49379        21.07210         1.21768
C         42.80134        23.18136         1.71795
C         41.51898        22.43993         1.42137
C         42.78694        24.63223         1.22734
C         41.51940        25.33408         1.22289
C         42.78478        27.48070         0.71130
C         41.53963        26.84543         1.26937
C         42.77501        28.87299         0.41628
C         41.53381        29.58737         0.31348
C         42.78029        31.62920        -0.20551
C         41.53595        30.96076        -0.03337
C         42.81077        33.03896        -0.62250
C         41.50899        33.79391        -0.72188
C         42.76022        35.93999        -0.49309
C         41.55876        35.25719        -0.60478
C         42.77294        37.38692        -0.37092
C         41.51786        38.09669        -0.34654
C         42.74953        40.21822        -0.01493
C         41.51925        39.51384        -0.14451
C         42.74380        41.64545         0.11818
C         41.50604        42.35659         0.12669
C         42.73027        44.48342         0.44928
C         41.49979        43.77649         0.25380
C         42.69943        45.97560         0.77999
C         41.49727        46.68434         0.21477
C         42.69965        48.81454        -0.01564
C         41.47557        48.07611         0.06505
C         42.71894        50.21711        -0.04416
C         41.47451        50.94975         0.05913
C         42.73068        53.08686         0.02478
C         41.48233        52.37879         0.10614
C         42.73221        54.53488         0.14150
C         41.49565        55.22946         0.33470
C         42.71994        57.35525         0.51000
C         41.49598        56.64470         0.50739
C         43.79703        16.73595         0.47847
C         45.12214        18.85189         0.44037
C         43.86903        18.15630         0.58666
C         45.17336        20.26251         0.62613
C         43.97954        20.95472         1.00475
C         45.30504        23.10874         0.93353
C         44.06272        22.38547         1.35984
C         45.18850        24.55036         0.60665
C         43.95868        25.31086         0.94110
C         45.21261        27.44056         0.44979
C         43.97977        26.74975         0.66533
C         45.24633        28.83852         0.27725
C         44.01178        29.55368         0.21407
C         45.25674        31.67149        -0.15993
C         44.00895        30.95874        -0.04100
C         45.26258        33.09546        -0.28109
C         44.04335        33.81397        -0.42141
C         45.24564        35.94881        -0.31771
C         44.01888        35.21855        -0.41631
C         45.23922        37.37144        -0.23514
C         43.98605        38.08380        -0.21465
C         45.21595        40.22195         0.12373
C         43.99366        39.51561        -0.03775
C         45.21469        41.64673         0.28407
C         43.96589        42.35571         0.25359
C         45.20822        44.46805         0.73067
C         43.93274        43.77413         0.46023
C         45.21639        46.00640         0.60010
C         43.96121        46.66213         0.32895
C         45.28135        48.79099        -0.21447
C         43.92925        48.02148        -0.17058
C         45.22669        50.25030        -0.08344
C         43.97370        50.93847        -0.09384
C         45.22282        53.07835        -0.25099
C         43.94238        52.36382        -0.09173
C         45.22662        54.60934        -0.12669
C         43.93530        55.28090         0.13783
C         43.91139        56.67974         0.33572
C         47.51206        18.82066        -0.07736
C         46.31414        18.15846         0.09487
C         47.60024        20.22759         0.04618
C         46.41969        20.96162         0.38100
C         47.68774        23.08607         0.16065
C         46.47207        22.37585         0.40292
C         47.74123        24.50786         0.22795
C         46.46767        25.25326         0.28143
C         47.79901        27.43117         0.34858
C         46.48924        26.71200         0.54701
C         47.73701        28.87021         0.06161
C         46.50223        29.54554         0.09032
C         47.72136        31.67704        -0.24116
C         46.48688        30.96729        -0.10452
C         47.72456        33.10152        -0.30751
C         46.49082        33.81322        -0.29173
C         47.71543        35.95201        -0.30398
C         46.48251        35.23871        -0.31071
C         47.70707        37.37368        -0.21368
C         46.46662        38.08135        -0.14538
C         47.69586        40.17801         0.20928
C         46.47343        39.50310         0.05904
C         47.69335        41.58216         0.75760
C         46.44292        42.35781         0.44420
C         47.71011        44.49722         0.60317
C         46.48178        43.75691         0.55805
C         47.71620        45.93279         0.51995
C         46.50297        46.67691         0.37308
C         47.72728        48.79611         0.24507
C         46.51281        48.06411         0.14927
C         47.70778        50.22382         0.17901
C         46.46796        50.93913         0.05904
C         47.68908        53.08045         0.12959
C         46.48599        52.36520         0.00366
C         47.64762        54.51156         0.31738
C         46.49030        55.22149         0.29660
C         50.06877        20.23486        -0.36227
C         48.85697        20.92482        -0.14217
C         50.12784        23.04971        -0.25097
C         48.89258        22.34857        -0.08226
C         50.13217        24.47918        -0.26765
C         48.95479        25.21397        -0.00022
C         50.16410        27.37228        -0.36449
C         48.99545        26.66444        -0.04109
C         50.17466        28.81672        -0.38268
C         48.95690        29.54618        -0.22139
C         50.18271        31.67516        -0.48385
C         48.95550        30.97037        -0.31819
C         50.18348        33.10211        -0.49776
C         48.95368        33.81447        -0.39750
C         50.18308        35.95710        -0.42295
C         48.95367        35.24335        -0.37766
C         50.18067        37.37829        -0.29245
C         48.94333        38.08000        -0.16374
C         50.17365        40.19570         0.14956
C         48.93616        39.49057         0.05848
C         50.15801        41.61547         0.40718
C         48.97706        42.34116         0.53964
C         50.17221        44.51704         0.58322
C         48.96591        43.78847         0.60528
C         50.19383        45.94582         0.53015
C         48.95061        46.65471         0.47881
C         50.18682        48.79988         0.43380
C         48.95577        48.08078         0.39841
C         50.18099        50.22823         0.36031
C         48.94051        50.94066         0.25058
C         50.18060        53.04752         0.24122
C         48.93938        52.36617         0.21596
C         51.28426        20.91647        -0.44393
C         52.65052        23.05757        -0.20574
C         51.34359        22.31063        -0.38283
C         52.61477        24.43000        -0.85083
C         51.32992        25.19248        -0.75005
C         52.57290        27.35364        -0.88931
C         51.38207        26.67123        -0.68618
C         52.60894        28.79115        -0.81847
C         51.39384        29.51438        -0.60716
C         52.62719        31.65726        -0.79989
C         51.40771        30.95193        -0.62551
C         52.62988        33.09692        -0.77905
C         51.41089        33.81697        -0.61795
C         52.64336        35.96273        -0.68264
C         51.42079        35.24830        -0.57892
C         52.65073        37.39957        -0.50693
C         51.41521        38.09442        -0.27050
C         52.66219        40.20996        -0.03353
C         51.40979        39.50335        -0.04384
C         52.69463        41.60541         0.22251
C         51.45040        42.28868         0.60059
C         52.70842        44.50894         0.38541
C         51.45370        43.80744         0.70260
C         52.69194        45.95463         0.44781
C         51.42406        46.65808         0.55720
C         52.64646        48.81731         0.61512
C         51.42636        48.09014         0.54902
C         52.66197        50.22513         0.50571
C         51.41109        50.94711         0.39050
C         51.37629        52.35983         0.31733
C         55.04124        23.02414        -0.85408
C         53.91443        22.33270        -0.59154
C         55.07425        24.48574        -0.94150
C         53.88460        25.17854        -0.93919
C         55.09383        27.36452        -1.13688
C         53.80675        26.62060        -1.38051
C         55.08747        28.77248        -1.06997
C         53.83789        29.49256        -0.96188
C         55.08420        31.61492        -1.08632
C         53.85446        30.92169        -0.94109
C         55.05751        33.07511        -1.26824
C         53.83404        33.82562        -0.96041
C         55.12475        35.94890        -0.90838
C         53.86495        35.24079        -0.89388
C         55.11999        37.45352        -1.03517
C         53.86066        38.11873        -0.54393
C         55.12908        40.23228        -0.22853
C         53.88371        39.51472        -0.28490
C         55.13738        41.62641        -0.02451
C         53.90072        42.33160         0.17522
C         55.14910        44.48770         0.00124
C         53.88232        43.77736         0.23412
C         55.14629        46.00128         0.15428
C         53.88508        46.66226         0.47289
C         55.19208        48.81919         0.57873
C         53.92221        48.08497         0.95368
C         55.12788        50.20730         0.44254
C         53.91431        50.89962         0.45978
C         57.57259        24.52988        -1.07842
C         56.33383        25.20565        -1.06918
C         57.55519        27.35385        -1.08031
C         56.31711        26.63809        -1.10656
C         57.56298        28.78060        -1.06395
C         56.32431        29.49738        -1.06109
C         57.57856        31.64336        -1.03164
C         56.32255        30.92438        -1.09323
C         57.61026        33.06407        -0.97400
C         56.38139        33.83443        -1.21652
C         57.59619        35.95517        -0.68495
C         56.33956        35.27508        -0.91434
C         57.60220        37.37903        -0.49216
C         56.38352        38.11801        -0.53650
C         57.62054        40.19669        -0.08766
C         56.38074        39.50046        -0.29628
C         57.62982        41.62112         0.05873
C         56.39608        42.33986         0.05392
C         57.63556        44.44549         0.32038
C         56.41741        43.74417         0.15637
C         57.62179        45.89000         0.63113
C         56.40894        46.69060         0.47619
C         57.71849        48.76520         0.49024
C         56.43708        48.08473         0.56699
C         58.77285        25.22193        -1.10163
C         60.01411        27.36053        -1.07381
C         58.78842        26.63771        -1.08487
C         60.01756        28.73624        -1.03281
C         58.80454        29.48019        -1.01649
C         60.00588        31.64460        -0.73494
C         58.80413        30.91993        -0.93598
C         60.00868        33.01816        -0.60976
C         58.81023        33.76558        -0.73262
C         60.01501        35.92609        -0.38641
C         58.80254        35.22080        -0.61631
C         60.03206        37.29049        -0.21026
C         58.83415        38.05336        -0.24684
C         60.06339        40.20547         0.07976
C         58.84503        39.48050        -0.08120
C         60.07470        41.57329         0.18437
C         58.86425        42.32812         0.16158
C         60.10251        44.51446         0.16366
C         58.86971        43.75798         0.26996
C         60.14951        45.87082         0.22301
C         58.97269        46.65108         0.61942
C         58.89977        48.09967         0.40726
O         58.35836        46.20336         1.86384
O         51.54597        42.96571         1.90740
O         55.73518        33.51380        -2.49874
O         44.65364        48.26351        -1.42735
O         37.20560        48.37136         1.87789
O         33.49257        23.23056         3.03093
O         33.95248        51.76561        -1.00031
O         32.36071        35.43155        -2.23578
O         47.30019        27.06848         1.71038
O         55.15509        45.36179        -1.18638
O         51.79900        24.59455        -2.05648
O         45.19272        45.30050         1.93490
O         39.61991        46.31666        -1.30009
O         45.10962        22.73151         2.34998
O         29.09266        38.89166        -2.43202
O         28.31626        27.79259        -2.02811
O         42.17323        33.27619        -1.94260
O         27.06574        45.96450         1.75475
O         45.27945        53.95211        -1.43283
O         45.55674        24.83758        -0.79947
O         25.90886        26.94085        -2.86061
H         26.79844        27.31141        -3.07285
O         31.65202        42.67908        -2.34438
H         31.63030        41.79831        -2.77763
O         55.11465        37.69503        -2.49775
H         55.82941        37.14681        -2.88719
O         26.12539        25.89652         1.54481
H         26.09854        25.15577         2.18591
O         27.66463        48.46839         2.54919
H         27.49893        47.50123         2.68150
O         47.62846        41.39680         2.23283
H         48.51185        41.08547         2.52643
O         24.43441        30.89256         0.70322
H         23.70060        30.37673         1.09688
O         41.59068        27.16638         2.71803
H         40.84699        26.68856         3.14518
O         25.32913        31.53546        -2.78082
H         26.05109        32.05764        -3.18889
O         37.87869        40.71874        -2.00958
H         37.95914        39.91183        -2.56032
O         40.23965        35.99372        -2.40817
H         40.52377        35.10630        -2.71983
O         52.74931        23.33984         1.23255
H         52.79917        22.48207         1.70434
O         40.16353        23.29189         3.21188
H         41.08658        23.39719         3.55485
O         35.20135        33.32850         1.73270
H         35.99561        32.90818         2.12680
O         42.59985        46.07030         2.24433
H         43.46213        45.73395         2.59490
O         53.95582        48.00214         2.43844
H         53.95920        48.92309         2.77688
O         30.19115        31.77413         1.53028
H         30.99267        32.20812         1.89300
O         53.64847        26.54542        -2.84584
H         52.90648        25.91004        -3.00392
O         42.82145        23.32599         3.18139
H         43.77562        23.34597         3.44231
O         37.69443        41.17092         1.61549
H         37.67866        41.97963         2.16882
H         22.24533        26.64098        -0.92631
H         22.20878        29.09928        -0.92766
H         22.08240        31.03730        -1.22062
H         22.07401        33.44792        -1.39544
H         22.01582        35.36990        -0.90565
H         21.99543        37.79848        -0.82139
H         21.98656        39.70937        -0.83610
H         21.98575        42.13646        -0.71945
H         22.07593        44.05945        -1.07961
H         22.16688        46.51689        -1.11439
H         25.56348        23.39896        -0.16978
H         23.57638        24.44799        -1.17018
H         25.52394        49.80979        -0.11172
H         23.47053        48.63330        -0.80729
H         26.92020        22.83616         1.28699
H         26.93370        50.72690         1.01873
H         28.97861        21.64912         1.87837
H         29.00023        51.92028         0.65896
H         32.76061        19.42394         2.14064
H         30.67660        20.64333         2.04432
H         32.70940        54.08521         1.03829
H         30.65633        52.82715         1.08102
H         34.36277        18.42244         1.67499
H         34.40582        55.08329         0.76065
H         36.42804        17.18660         1.35703
H         36.52057        56.28753         0.82345
H         40.12518        15.01558         0.72238
H         38.02312        16.24956         1.02329
H         40.27567        58.42634         0.80667
H         38.14180        57.21457         0.82055
H         42.55938        14.97885         0.48192
H         42.71187        58.44678         0.63821
H         44.71211        16.14857         0.33003
H         44.84932        57.25028         0.31533
H         48.40098        18.23306        -0.34179
H         46.29731        17.07059        -0.04731
H         48.57048        55.03213         0.60672
H         46.50182        56.27178         0.61912
H         50.08342        19.13890        -0.42112
H         50.21065        54.14314         0.18176
H         52.20569        20.32701        -0.55018
H         52.30956        52.93751         0.32826
H         55.96533        22.46644        -1.06060
H         53.95081        21.23417        -0.55445
H         56.04585        50.78987         0.28196
H         53.94613        51.99113         0.35207
H         57.60189        23.43251        -1.06097
H         57.72472        49.85908         0.38783
H         59.72558        24.67350        -1.11200
H         60.96267        26.80490        -1.09259
H         60.98272        29.25924        -1.02362
H         60.96142        31.11219        -0.64493
H         60.96571        33.52244        -0.42659
H         60.96825        35.38471        -0.34241
H         60.99616        37.78357        -0.03188
H         61.02113        39.66989         0.10846
H         61.03830        42.08538         0.30474
H         61.02472        43.97367        -0.08988
H         61.08008        46.40600        -0.01762
H         59.82977        48.64599         0.18973
