         630
 CSIRO Nanostructure Databank - Neutral Graphene Oxide Data Set
C         23.02778        27.59257        -0.18622
C         23.07488        28.81094         0.39829
C         23.38137        31.23980         2.19949
C         23.52559        32.48112         2.83238
C         23.49217        36.23410         2.94852
C         23.29381        37.47070         2.35068
C         22.99101        40.16579         1.23989
C         22.93667        41.52375         0.98776
C         22.85193        44.42506         0.41164
C         22.81146        45.76916         0.15148
C         25.37807        24.71227        -0.90739
C         24.19805        25.44186        -0.75298
C         25.49364        27.40742        -0.13460
C         24.22870        26.78140        -0.33337
C         25.55539        28.74628         0.34783
C         24.35000        29.25947         1.07942
C         25.61618        31.48729         1.23300
C         24.42935        30.72208         1.44593
C         25.69999        32.84226         1.70373
C         24.67518        33.22803         2.60725
C         25.66382        35.95876         1.79941
C         24.66457        35.51380         2.68745
C         25.49734        37.29333         1.32901
C         24.31812        38.04441         1.56929
C         25.37576        40.18032         0.83815
C         24.21854        39.45722         1.17469
C         25.36345        41.59854         0.73082
C         24.11471        42.28118         0.76573
C         25.30743        44.42203         0.58497
C         24.09474        43.71410         0.59157
C         25.24607        45.89697         0.60502
C         24.00202        46.56173         0.18585
C         25.22766        48.64030        -0.24888
C         24.01998        47.91309        -0.13526
C         27.92440        23.16466        -0.94191
C         27.89210        24.57173        -0.79968
C         26.64502        25.31275        -0.73303
C         27.94243        27.39942        -0.34805
C         26.69651        26.69992        -0.41352
C         27.95736        28.81312        -0.11939
C         26.74889        29.47496         0.29155
C         27.97773        31.60219         0.54468
C         26.77687        30.86409         0.66699
C         27.98766        33.01330         0.83317
C         26.83421        33.68946         1.35682
C         27.98810        35.84380         0.95503
C         26.83783        35.13915         1.40970
C         27.95266        37.28931         0.77901
C         26.64118        37.94847         0.68267
C         27.87828        40.20417         0.50202
C         26.61259        39.45991         0.50712
C         27.85175        41.62302         0.53559
C         26.59651        42.32745         0.59391
C         27.81009        44.48072         0.47482
C         26.57496        43.74812         0.57607
C         27.80668        45.92678         0.42621
C         26.54028        46.69622         0.53230
C         27.71609        48.79728        -0.19058
C         26.47462        48.07040        -0.01625
C         27.81384        50.11682        -0.59801
C         30.34527        23.12596        -0.61300
C         29.11322        22.46329        -0.85058
C         30.34470        24.53363        -0.55910
C         29.12961        25.25737        -0.63376
C         30.38954        27.41729        -0.57346
C         29.15722        26.69556        -0.50144
C         30.38593        28.84438        -0.55076
C         29.16122        29.54065        -0.23247
C         30.36448        31.67469        -0.08523
C         29.15684        30.95021         0.04638
C         30.40048        33.02535         0.26576
C         29.21045        33.72013         0.63129
C         30.38927        35.86495         0.28305
C         29.21308        35.15371         0.66817
C         30.30596        37.32600         0.11027
C         29.08754        38.03787         0.52311
C         30.31870        40.22988         0.39273
C         29.09863        39.49525         0.44524
C         30.32197        41.64213         0.38289
C         29.07657        42.34683         0.45603
C         30.29081        44.47828         0.25876
C         29.05283        43.77880         0.41585
C         30.23538        45.92420         0.03755
C         28.97517        46.63587         0.27199
C         30.24228        48.90270         0.25101
C         28.95016        48.12157         0.26447
C         30.26663        50.26733        -0.31493
C         29.05317        50.82049        -0.67697
C         32.81893        20.26801        -0.34845
C         31.61920        20.97497        -0.38368
C         32.83736        23.08296        -0.42038
C         31.59243        22.37745        -0.45105
C         32.85151        24.50161        -0.46229
C         31.60196        25.28674        -0.19435
C         32.81295        27.39494        -1.02138
C         31.62545        26.72278        -0.68355
C         32.79397        28.85184        -1.12843
C         31.60090        29.53648        -0.77734
C         32.83923        31.72897        -0.54077
C         31.52481        31.05123        -0.82895
C         32.89545        33.06647        -0.17989
C         31.71197        33.74257         0.45870
C         32.84449        35.91212        -0.08352
C         31.63660        35.21681         0.14928
C         32.81731        37.36362        -0.33609
C         31.54072        38.11388        -0.13575
C         32.86116        40.27022         0.14391
C         31.62196        39.48261         0.51001
C         32.81705        41.69361         0.21885
C         31.57044        42.37985         0.32008
C         32.79006        44.55657         0.27503
C         31.54184        43.81108         0.27104
C         32.79340        45.96139         0.26473
C         31.54572        46.69749         0.05195
C         32.83140        48.88790         0.17682
C         31.53629        48.15346         0.36669
C         32.79208        50.30585        -0.23462
C         31.55574        50.96179        -0.45888
C         32.80021        53.01050        -0.94358
C         31.59147        52.32626        -0.82852
C         35.36115        18.78870        -0.40715
C         35.31866        20.19727        -0.47380
C         34.06646        20.92589        -0.40922
C         35.31207        23.05626        -0.51954
C         34.07390        22.35366        -0.43437
C         35.30237        24.48604        -0.66951
C         34.05646        25.19699        -0.65042
C         35.23604        27.03599        -1.59254
C         34.03706        26.58141        -1.05213
C         35.23772        29.16481        -1.85717
C         33.97864        29.69021        -1.38136
C         35.24230        31.81019        -1.15542
C         34.00000        31.04339        -1.00921
C         35.31590        33.16779        -0.62137
C         34.12028        33.81645        -0.25767
C         35.34146        35.96834        -0.28336
C         34.10346        35.24629        -0.15525
C         35.35742        37.40130        -0.22310
C         34.09024        38.14046        -0.31465
C         35.31325        40.29899        -0.15351
C         34.07134        39.60174        -0.07388
C         35.29438        41.72772         0.01182
C         34.05558        42.42171         0.16763
C         35.28674        44.53263         0.42056
C         34.05251        43.84113         0.28252
C         35.26076        46.00206         0.59118
C         34.01490        46.72395         0.24289
C         35.31373        48.77594        -0.44318
C         34.04869        48.08521         0.00125
C         35.28654        50.27893        -0.34167
C         34.03959        50.98107        -0.41727
C         35.30164        53.14053        -0.94554
C         34.02353        52.37009        -0.72857
C         35.30918        54.43427        -0.15832
C         37.80171        18.77360        -0.57074
C         36.56357        18.10220        -0.45157
C         37.81223        20.19906        -0.68872
C         36.55039        20.91012        -0.62724
C         37.76421        23.05084        -0.94865
C         36.52666        22.32176        -0.64200
C         37.78745        24.50242        -0.62013
C         36.51591        25.21309        -0.78729
C         37.75091        27.34102        -1.32509
C         36.52968        26.55267        -1.22502
C         37.78357        28.82646        -1.77230
C         36.49907        29.62379        -1.53384
C         37.81437        31.73259        -0.98948
C         36.57006        31.07258        -1.37371
C         37.80359        33.11772        -0.77667
C         36.56501        33.84181        -0.62972
C         37.81376        35.95380        -0.59842
C         36.56998        35.25243        -0.44529
C         37.74212        37.41481        -0.77208
C         36.53006        38.14463        -0.38012
C         37.79098        40.28779        -0.43820
C         36.53678        39.57843        -0.34894
C         37.75418        41.76643        -0.39200
C         36.51203        42.45684         0.00330
C         37.80777        44.50855         0.58122
C         36.51390        43.83517         0.31391
C         37.83862        46.06016         0.73820
C         36.54539        46.79956         0.64412
C         37.78444        48.85522        -0.00128
C         36.56928        48.17787         0.13125
C         37.80013        50.26627        -0.26876
C         36.53674        50.98724        -0.40757
C         37.84332        53.14299        -0.73671
C         36.55536        52.36500        -0.62704
C         37.75919        54.52822        -0.13618
C         36.47315        55.08229         0.13581
C         40.26829        15.94106        -0.37399
C         39.08396        16.62767        -0.50828
C         40.27407        18.77130        -0.47139
C         39.05137        18.05199        -0.53259
C         40.28798        20.20271        -0.60805
C         39.05635        20.88103        -0.79717
C         40.36324        23.08709        -1.05917
C         39.08917        22.32375        -1.07992
C         40.27752        24.50590        -1.19967
C         39.05574        25.25979        -0.80790
C         40.22982        27.43955        -1.16066
C         38.97730        26.71276        -1.12134
C         40.23927        28.84540        -1.08224
C         39.00016        29.57169        -1.19663
C         40.24508        31.61854        -0.39331
C         39.00088        30.93860        -0.92735
C         40.25307        33.11506        -0.62090
C         39.07072        33.82527        -0.67486
C         40.28385        36.01444        -0.78724
C         39.03405        35.28071        -0.69336
C         40.27210        37.40830        -0.83643
C         39.03351        38.19131        -0.90445
C         40.29272        40.30623        -0.38739
C         39.01856        39.63592        -0.58536
C         40.33245        41.72703        -0.11371
C         39.09254        42.51892        -0.25694
C         40.33487        44.53930         0.75668
C         39.06543        43.86001         0.29887
C         40.32225        46.02267         0.40975
C         39.08344        46.75708         0.39075
C         40.26582        48.86126        -0.07121
C         39.04255        48.13519         0.11154
C         40.27449        50.24040        -0.14566
C         39.03438        50.97518        -0.23936
C         40.26164        53.11891        -0.01057
C         39.07009        52.38919        -0.30434
C         40.20329        54.52724         0.14540
C         38.96380        55.23230         0.09999
C         40.16658        57.37661         0.14930
C         38.98117        56.67014         0.22190
C         42.71725        15.94904        -0.01098
C         41.49530        16.64182        -0.22724
C         42.72242        18.78155        -0.11984
C         41.50024        18.06368        -0.28879
C         42.73139        20.21537        -0.23429
C         41.52519        20.92560        -0.55682
C         42.84863        22.98417        -0.68747
C         41.58155        22.34930        -0.82301
C         43.14339        24.30374        -1.17948
C         41.34319        25.32879        -1.58998
C         42.73482        27.36452        -1.12644
C         41.46592        26.71640        -1.27711
C         42.73942        28.76833        -0.98042
C         41.50660        29.52645        -0.95459
C         42.76392        31.64453        -0.85842
C         41.53093        30.92482        -0.79394
C         42.78898        33.06769        -0.79823
C         41.55229        33.82527        -0.34944
C         42.75621        35.94601        -0.85347
C         41.53564        35.28683        -0.74248
C         42.79987        37.42126        -1.02286
C         41.50719        38.18293        -0.95586
C         42.75712        40.18117        -0.07981
C         41.48600        39.58577        -0.49032
C         42.78929        41.67526         0.22857
C         41.52315        42.40893         0.11442
C         42.77440        44.51971         0.09870
C         41.57342        43.83960         0.24388
C         42.78350        45.97168         0.09148
C         41.51733        46.66556         0.16411
C         42.77624        48.80093         0.15208
C         41.53484        48.09315        -0.30998
C         42.62476        50.19439         0.67929
C         41.60308        50.96904        -0.18703
C         42.69183        53.13492         0.48041
C         41.50526        52.42764         0.20595
C         42.71362        54.54887         0.41146
C         41.41736        55.27710         0.62403
C         42.63845        57.36314        -0.07361
C         41.41871        56.71177         0.17582
C         43.88533        16.64409         0.19518
C         45.13393        18.79187         0.44881
C         43.91760        18.06914         0.16825
C         45.13878        20.21705         0.39361
C         43.94564        20.90814         0.01813
C         45.11961        23.09120         0.23956
C         43.98140        22.33345        -0.10620
C         45.00108        24.61003         0.38130
C         44.04327        25.17382        -0.64422
C         45.23393        27.38018        -0.55494
C         44.09038        26.60240        -1.17951
C         45.22788        28.76165        -0.65433
C         43.98666        29.49655        -0.90496
C         45.29248        31.59898        -1.22406
C         43.98755        30.88973        -0.95980
C         45.27658        33.08850        -0.95764
C         44.01469        33.79814        -0.90684
C         45.23695        35.98597        -1.03709
C         43.99044        35.21942        -0.87712
C         45.25123        37.43199        -0.70279
C         44.04663        38.14110        -0.68318
C         45.25297        40.22943        -0.22467
C         44.03946        39.51535        -0.37252
C         45.25969        41.67758        -0.10092
C         44.05879        42.39236         0.03860
C         45.24448        44.51857        -0.18761
C         44.03725        43.81343        -0.05592
C         45.23270        45.99725        -0.48218
C         43.96264        46.69012        -0.07511
C         45.23911        48.84431         0.29933
C         43.97015        48.12911         0.11101
C         45.24293        50.19284         0.57709
C         43.96912        50.92310         0.82117
C         45.27609        53.22710         0.74646
C         43.96726        52.42391         0.79051
C         45.15498        54.55193         0.03293
C         43.92116        55.26354         0.14373
C         43.84591        56.67365        -0.09528
C         47.47356        18.83114         1.10157
C         46.32949        18.12275         0.80509
C         47.49937        20.24837         1.05744
C         46.32713        20.95514         0.68992
C         47.46288        23.14327         0.97849
C         46.31750        22.41508         0.63587
C         47.44940        24.65700         1.12819
C         46.32668        25.33051         0.35945
C         47.59862        27.43144         0.27741
C         46.38365        26.66635         0.00098
C         47.59595        28.81313         0.10841
C         46.43499        29.52363        -0.37015
C         47.72872        31.62591        -0.51412
C         46.48124        30.90017        -0.59860
C         47.75296        33.07120        -0.67993
C         46.48906        33.75606        -0.84869
C         47.74458        35.92667        -0.49782
C         46.54242        35.22299        -0.96552
C         47.67263        37.34755        -0.19221
C         46.45214        38.11469        -0.43506
C         47.74644        40.23883        -0.33234
C         46.48141        39.52147        -0.27936
C         47.72467        41.69265        -0.38514
C         46.49303        42.39155        -0.21755
C         47.72410        44.54112        -0.20969
C         46.48351        43.82196        -0.21590
C         47.71559        45.98252        -0.05791
C         46.49251        46.71025        -0.05284
C         47.72128        48.82197         0.18908
C         46.48237        48.09704         0.17235
C         47.74793        50.23177         0.31324
C         46.52912        50.95754         0.83073
C         47.63395        53.06810        -0.02687
C         46.47985        52.40011         0.36204
C         47.53687        54.43023        -0.47384
C         46.33255        55.11445        -0.49660
C         49.93235        20.33791         1.59471
C         48.71505        20.96644         1.38383
C         50.00396        23.18657         1.46018
C         48.64656        22.42823         1.45690
C         49.99271        24.60139         1.03235
C         48.80286        25.30246         0.87851
C         50.02429        27.42099         0.80468
C         48.82081        26.73463         0.64900
C         50.08998        28.88402         0.79381
C         48.79520        29.60542         0.43049
C         50.19705        31.57847        -0.27715
C         48.88672        30.95865        -0.12559
C         50.22555        33.11168        -0.48661
C         48.93452        33.80317        -0.49038
C         50.18306        35.97442        -0.14243
C         48.93909        35.24244        -0.31819
C         50.23458        37.35338        -0.26636
C         48.99613        38.12407        -0.12799
C         50.19521        40.17975        -0.97385
C         48.94825        39.55510        -0.40241
C         50.18972        41.70263        -0.84217
C         48.92840        42.41346        -0.52058
C         50.21474        44.50650        -0.15252
C         48.94528        43.82550        -0.33602
C         50.21821        45.93970         0.32896
C         48.94302        46.69407         0.03177
C         50.17714        48.83403        -0.25526
C         48.93625        48.08877         0.02227
C         50.20117        50.28924        -0.08857
C         48.96025        50.96579         0.09287
C         50.14782        53.07226        -0.18448
C         48.92913        52.38487        -0.03372
C         51.16495        21.04193         1.55919
C         52.51008        23.03927         0.85395
C         51.22916        22.40292         1.36247
C         52.49381        24.55985         0.92738
C         51.27724        25.24771         0.97209
C         52.60419        27.44026         1.06218
C         51.26436        26.70369         1.10723
C         52.60792        28.86201         0.68083
C         51.39563        29.55743         0.56524
C         52.64406        31.63304         0.15845
C         51.42504        30.92230         0.18768
C         52.61680        33.07667         0.09201
C         51.45603        33.79030        -0.08595
C         52.70848        35.95493        -0.01956
C         51.41637        35.24089         0.32237
C         52.70740        37.38536        -0.24507
C         51.48610        38.09686        -0.34281
C         52.70693        40.22116        -0.42693
C         51.47910        39.50365        -0.50529
C         52.73926        41.65604        -0.39152
C         51.48686        42.42781        -0.59303
C         52.67055        44.52622         0.21181
C         51.40693        43.82927        -0.14312
C         52.69507        45.99695         0.03026
C         51.49761        46.65439        -0.05097
C         52.74083        48.85041        -0.19900
C         51.48575        48.09401        -0.34625
C         52.70449        50.25816        -0.21060
C         51.42626        50.98627        -0.19620
C         51.36654        52.40072        -0.21666
C         54.91114        23.17915         1.45282
C         53.74516        22.53551         1.58011
C         54.99294        24.42256         0.59564
C         53.74004        25.25058         0.82255
C         55.05811        27.35127         0.65482
C         53.81958        26.64996         0.81955
C         55.08617        28.77599         0.56399
C         53.85594        29.51547         0.49590
C         55.13280        31.60985         0.35731
C         53.88278        30.93228         0.34162
C         55.15413        33.08033         0.44377
C         53.86276        33.82276         0.37761
C         55.17522        35.88621        -0.43531
C         53.88301        35.25986         0.02052
C         55.18539        37.37476        -0.22029
C         53.95246        38.08263        -0.27380
C         55.18074        40.21225        -0.22410
C         53.94159        39.51041        -0.29048
C         55.18513        41.63544        -0.16941
C         53.94213        42.33039        -0.18090
C         55.22395        44.52897        -0.05174
C         53.96097        43.77861         0.12748
C         55.18936        45.97086        -0.05906
C         53.96689        46.68894        -0.06167
C         55.20268        48.84035        -0.09019
C         53.96837        48.12508        -0.11019
C         55.14812        50.26112        -0.11421
C         53.94999        50.94389        -0.15927
C         57.50709        24.50399         0.78181
C         56.28543        25.19947         0.74357
C         57.53514        27.32388         0.67083
C         56.29276        26.61463         0.67774
C         57.56309        28.75246         0.59397
C         56.32971        29.47632         0.51268
C         57.61019        31.62281         0.44976
C         56.35057        30.90472         0.43342
C         57.64335        33.05701         0.35514
C         56.42749        33.80459         0.23491
C         57.66262        35.91012         0.05776
C         56.43160        35.17812         0.02176
C         57.65767        37.34343        -0.02745
C         56.41077        38.06327        -0.13908
C         57.64118        40.21555        -0.11532
C         56.41112        39.49441        -0.14959
C         57.62898        41.64667        -0.20423
C         56.42470        42.35764        -0.16628
C         57.67579        44.53269        -0.20381
C         56.41830        43.81939        -0.15996
C         57.66553        45.96145        -0.13919
C         56.43325        46.68922        -0.09302
C         57.70518        48.78958        -0.06701
C         56.44584        48.11284        -0.07628
C         58.72097        25.18077         0.79248
C         59.99025        27.31239         0.73748
C         58.75703        26.59412         0.73737
C         60.00902        28.68606         0.67250
C         58.80593        29.44866         0.59786
C         60.05028        31.62619         0.52376
C         58.82512        30.89494         0.52756
C         60.07928        32.99882         0.43322
C         58.88006        33.76188         0.33785
C         60.09267        35.95901         0.30928
C         58.88456        35.20143         0.24266
C         60.08887        37.33084         0.23886
C         58.87482        38.07313         0.09046
C         60.05905        40.28750         0.32438
C         58.86887        39.50663         0.05588
C         60.08613        41.63206         0.16036
C         58.93515        42.34294        -0.50791
C         60.10773        44.56737        -0.33248
C         58.90354        43.84122        -0.29673
C         60.11505        45.95278        -0.24726
C         58.90237        46.67068        -0.15549
C         58.88897        48.09812        -0.10123
O         25.85134        46.50481         1.80687
O         50.38566        32.18842        -1.60526
O         38.23114        37.85442        -2.09132
O         53.30828        44.05365         1.45161
O         43.94565        51.69158         2.08511
O         38.57722        24.88792         0.55233
O         38.29000        22.71744        -2.27496
O         24.85520        34.34783         3.42976
O         30.89354        46.38879        -1.22236
O         42.19529        37.94498        -2.25684
O         46.00604        35.69954        -2.26097
O         42.76456        40.69073         1.31087
O         35.75206        46.55899         1.86742
O         50.92631        42.29550        -1.96970
O         38.40458        42.38141        -1.55675
O         32.27040        48.57818         1.53698
O         37.88026        45.20917         1.90792
O         26.41390        38.54427        -0.63711
O         48.27913        37.72332         1.09167
O         54.46450        33.54584         1.69151
O         49.22611        22.99198         2.69254
O         51.93944        27.17945         2.33744
O         50.74018        48.42548        -1.58100
O         33.43691        37.76694        -1.60711
O         29.47616        48.74559         1.49667
O         35.17059        27.98766        -2.60516
O         30.65551        37.88918        -1.25225
O         42.39193        24.73287        -2.29783
O         49.25784        29.52165         1.82767
O         35.86590        31.74445        -2.48501
O         51.29642        35.22149         1.78410
H         51.23296        36.14998         2.09311
O         44.43254        26.52177        -2.59743
H         43.73821        25.96794        -3.02529
O         42.13454        50.94811        -1.54340
H         41.42459        51.23019        -2.15666
O         42.03440        50.04435         1.99094
H         42.42105        50.75437         2.55854
O         55.18672        35.69507        -1.90969
H         54.47388        36.25766        -2.28216
O         24.35674        28.55551         2.37975
H         24.35832        27.59298         2.18805
O         31.54625        25.42709         1.28318
H         31.54267        24.52102         1.65964
O         46.66516        51.01099         2.31696
H         45.75481        50.92675         2.68704
O         40.17158        31.46733         1.07406
H         40.76054        32.16234         1.45826
O         35.33270        53.49896        -2.36727
H         36.25810        53.79118        -2.56511
O         59.14691        42.17212        -1.95931
H         59.17016        41.20714        -2.13519
O         40.42596        44.43347         2.21430
H         39.57834        44.79615         2.57315
O         31.78954        39.16602         1.94434
H         31.84008        40.01539         2.43293
O         45.48901        31.48115        -2.68112
H         46.26767        32.02774        -2.92149
O         47.14686        24.88016         2.55857
H         47.83928        24.37912         3.05802
O         35.38635        48.47717        -1.90753
H         36.11501        49.02014        -2.27867
O         54.97465        23.97290        -0.81171
H         55.06397        24.76974        -1.37648
O         44.44797        24.84884         1.71914
H         45.20806        24.81358         2.35070
O         37.99340        28.78622        -3.21380
H         37.15806        28.46364        -3.61827
O         41.63258        47.99729        -1.78201
H         42.48850        47.56264        -1.99166
O         41.27919        55.33801         2.11177
H         42.11689        55.71176         2.46133
O         52.60323        22.65398        -0.54574
H         53.47343        22.99477        -0.87909
O         31.24644        31.37525        -2.24004
H         31.99881        31.04128        -2.77435
O         50.12265        39.87890        -2.40464
H         50.59700        40.61396        -2.86121
O         31.97789        33.65255         1.91024
H         31.23048        34.08877         2.37252
O         50.24218        45.87217         1.79996
H         51.03187        45.35044         2.06308
O         41.66370        33.83119         1.14815
H         42.53741        34.21998         1.37171
O         38.03157        53.38613        -2.21288
H         38.17502        52.50707        -2.62629
O         45.55104        53.64968         2.13319
H         46.02716        52.90340         2.56884
O         45.23443        46.09619        -1.96231
H         46.07160        45.69453        -2.28064
H         22.08280        27.19996        -0.59166
H         22.16284        29.41767         0.50072
H         22.48816        30.62928         2.38886
H         22.77301        32.84252         3.54440
H         22.74877        35.81722         3.63983
H         22.37380        38.02942         2.56496
H         22.05592        39.63062         1.45324
H         21.95935        42.02354         1.01431
H         21.91184        43.85786         0.39979
H         21.85333        46.26104        -0.07108
H         25.30742        23.65300        -1.19017
H         23.22989        24.95268        -0.93330
H         25.16701        49.68420        -0.58758
H         23.07438        48.41731        -0.38202
H         26.99106        22.60642        -1.09685
H         26.90760        50.66277        -0.89660
H         29.08781        21.36975        -0.94792
H         29.01235        51.84565        -1.07089
H         32.77264        19.17169        -0.31081
H         30.68026        20.40511        -0.37286
H         32.79011        54.07026        -1.23419
H         30.65754        52.87241        -1.01472
H         34.43418        18.21098        -0.29564
H         34.34771        54.88733         0.12472
H         36.53735        17.00823        -0.36680
H         36.41938        56.05499         0.64816
H         40.27308        14.84185        -0.35442
H         38.15159        16.05599        -0.60212
H         40.14389        58.47106         0.03430
H         38.03072        57.22073         0.19540
H         42.71329        14.84997         0.01494
H         42.63164        58.44131        -0.29421
H         44.80711        16.07853         0.38271
H         44.76815        57.23152        -0.30474
H         48.37497        18.27582         1.39031
H         46.36115        17.02734         0.86123
H         48.43119        54.93063        -0.86893
H         46.30557        56.11798        -0.94472
H         49.98898        19.24147         1.61513
H         50.15521        54.16875        -0.25290
H         52.08636        20.44340         1.52384
H         52.28688        52.99368        -0.30078
H         55.81168        22.82053         1.97340
H         53.67835        21.63124         2.20349
H         56.07807        50.84473        -0.09446
H         53.97308        52.04184        -0.16284
H         57.50371        23.40498         0.79486
H         57.73366        49.88682        -0.03679
H         59.66489        24.61857         0.83001
H         60.93356        26.75012         0.79241
H         60.98089        29.19693         0.67817
H         61.00621        31.09007         0.58884
H         61.05441        33.50408         0.42645
H         61.05439        35.44268         0.43173
H         61.04719        37.86406         0.29929
H         60.94855        39.78045         0.72506
H         61.00196        42.18910         0.40465
H         61.06220        44.03517        -0.44569
H         61.06650        46.50300        -0.27570
H         59.84639        48.63893        -0.10088
