         320
 CSIRO Nanostructure Databank - Neutral Graphene Oxide Data Set
C         30.26475        31.77578         0.25465
C         30.17453        33.03345         0.11113
C         30.38451        36.12543        -1.17235
C         30.36050        37.34216        -1.41988
C         30.47718        40.36573        -1.15009
C         30.25139        41.50733        -0.66386
C         32.62022        28.85844         0.74572
C         31.57697        29.55494         0.62139
C         32.69646        31.60144        -0.19762
C         31.31839        30.88596         0.32464
C         32.61712        33.13229         0.07895
C         31.34113        33.79147        -0.61991
C         32.84310        35.87215        -1.15480
C         31.29128        35.29010        -0.37560
C         32.86285        37.35754        -1.49896
C         31.54585        38.14910        -1.72458
C         32.85652        40.44904        -1.50304
C         31.57244        39.58025        -1.50345
C         32.78279        41.45689        -0.33144
C         31.30057        42.56726        -0.58429
C         32.61599        43.90532         0.95055
C         31.52794        43.40636         0.60759
C         35.36630        27.25832         0.35636
C         35.18531        28.72735         0.78746
C         33.95564        29.36736         0.17797
C         35.23892        31.65072         0.25780
C         33.91284        30.92650         0.50903
C         35.15354        33.14460         0.60747
C         34.05165        33.78261        -0.30415
C         35.31553        36.05284        -0.53836
C         33.97935        35.36443        -0.23634
C         35.38765        37.36546        -0.91205
C         34.17657        38.11063        -1.38754
C         35.45435        40.41838        -1.17355
C         34.16753        39.62444        -1.44011
C         35.29882        41.72562        -0.43528
C         34.01872        42.28937        -0.09771
C         35.12421        44.30653         0.79115
C         33.96756        43.48479         0.64784
C         35.28796        45.56468         1.36662
C         37.79695        27.32032         0.67960
C         36.47915        26.75612         0.60600
C         37.77034        28.69068         0.54150
C         36.48356        29.44989         0.23734
C         37.79216        31.63276         0.35724
C         36.49616        30.92187         0.74068
C         37.82419        33.12570         0.71113
C         36.48713        33.91738         0.49182
C         37.81740        36.05989        -0.12385
C         36.51895        35.34234        -0.01578
C         37.86473        37.38648        -0.37985
C         36.71966        38.10446        -1.06498
C         37.77067        40.27184        -0.34318
C         36.65184        39.59562        -0.72054
C         37.74849        41.73478         0.09080
C         36.45810        42.44746        -0.24564
C         37.70836        44.68413         0.24943
C         36.37633        43.87035         0.12020
C         37.72265        45.83798         1.18463
C         36.42304        46.13640         1.51392
C         40.28388        24.52854         0.72273
C         39.18988        25.11701         0.74978
C         40.22598        27.22297         0.25214
C         39.05339        26.58950         1.07213
C         40.31941        28.71241         0.58881
C         39.02720        29.48604         0.62424
C         40.30365        31.70248         0.40854
C         38.97357        30.95096         0.30980
C         40.30793        33.11664        -0.31094
C         38.92737        33.86545        -0.14024
C         40.34713        35.98960        -0.17769
C         39.05368        35.33072         0.38326
C         40.38337        37.46174         0.10860
C         39.04261        38.15721         0.18554
C         40.25902        40.34854         0.25327
C         39.11141        39.56096        -0.41185
C         40.31541        41.79412        -0.24759
C         39.00547        42.51175        -0.33047
C         40.30462        44.54678         0.42503
C         39.02822        44.06959        -0.28153
C         40.30157        45.75346         1.31133
C         38.94988        46.34396         1.90596
C         40.18361        48.50956         1.85484
C         39.16749        47.81410         1.86261
C         42.90330        24.52204         0.31473
C         41.58041        25.09813         0.44660
C         42.73841        27.27467        -0.22322
C         41.55547        26.48415         0.32447
C         42.77108        28.73807         0.18245
C         41.60086        29.41056         0.33495
C         42.82298        31.60177         0.30992
C         41.54009        30.87608        -0.02968
C         42.72720        33.06139         0.60670
C         41.52538        33.87687         0.23457
C         42.70981        35.97832         1.00622
C         41.54068        35.23080         0.36104
C         42.76519        37.46013         0.72299
C         41.58712        38.14701         0.35476
C         42.74480        40.48406         0.67264
C         41.62689        39.64374         0.01652
C         42.78766        41.85205        -0.00241
C         41.61840        42.52684        -0.17422
C         42.84706        44.66666         0.43883
C         41.61708        44.04687        -0.21853
C         42.82842        45.96747         0.82405
C         41.59861        46.57754         1.50242
C         42.83182        48.64543         1.67806
C         41.48814        48.14527         1.22452
C         43.92125        25.21856         0.14101
C         45.25578        27.31699        -0.30467
C         44.11422        26.61260        -0.09724
C         45.26435        28.86765        -0.50497
C         44.11334        29.44120         0.34777
C         45.32410        31.73460         0.12775
C         44.01726        30.95212         0.25146
C         45.29787        32.94568         1.04456
C         43.99994        33.77918         0.90260
C         45.24833        35.92286         1.02764
C         44.02998        35.26351         0.49764
C         45.39546        37.41750         1.21691
C         44.03400        38.18375         1.01693
C         45.33335        40.30841         0.26902
C         44.06478        39.68222         0.78569
C         45.32571        41.74784        -0.13635
C         44.07748        42.60604        -0.27494
C         45.40253        44.68196         0.39803
C         44.13431        43.86836         0.59206
C         45.38437        46.05449         0.51626
C         44.09735        46.83182         0.59090
C         43.88403        48.02126         1.49862
C         47.68853        27.32139         0.04729
C         46.58932        26.82774        -0.24426
C         47.91529        28.77996         0.03216
C         46.61588        29.55677        -0.14511
C         47.81664        31.62723         0.63799
C         46.60718        30.95745         0.36360
C         47.90145        33.10384         1.11984
C         46.53697        33.78995         0.96379
C         48.13763        36.22309         0.95631
C         46.31897        35.10207         1.40264
C         47.89029        37.43162         0.40014
C         46.52126        38.08123         0.32666
C         47.81689        40.23912        -0.22977
C         46.67654        39.61578         0.59842
C         47.75512        41.62087        -0.54289
C         46.65687        42.45804         0.11127
C         48.00630        44.68595         0.15191
C         46.61747        43.95977        -0.21824
C         47.71819        46.04908         0.07356
C         46.61230        46.68286         0.04524
C         50.35159        28.87953         0.63832
C         48.98124        29.40344         0.90191
C         50.21910        31.51610        -0.16182
C         49.05497        30.92047         0.62120
C         50.25917        33.07113        -0.17646
C         49.11200        33.86660         0.45454
C         50.41880        36.08483         0.45810
C         49.27289        35.36094         0.64563
C         50.36022        37.48225        -0.05696
C         48.95725        37.96263        -0.53278
C         50.01793        40.09142        -1.32448
C         48.91348        39.47124        -0.68596
C         49.93987        41.44855        -1.66595
C         48.72707        42.14201        -1.43211
C         50.44931        44.14240        -0.26093
C         49.23519        44.06499         0.51945
C         51.34938        29.39441         0.13996
C         52.44550        31.36231        -1.18457
C         51.67159        30.84591         0.03191
C         52.29403        32.58701        -1.36116
C         51.58636        33.64501        -0.72717
C         52.81877        35.89182        -1.09947
C         52.12654        34.85510        -0.37780
C         52.57161        37.10526        -1.06849
C         51.52943        38.09643        -0.82792
C         52.34317        40.18138        -2.03059
C         51.18068        39.18214        -1.86061
C         52.29960        41.41148        -2.07625
C         51.16009        42.35912        -2.07792
C         51.10182        43.42839        -1.02538
O         34.38524        38.84508        -2.64042
O         41.72107        44.61440        -1.59463
O         44.08471        39.15852         2.14562
O         36.81159        44.84118        -0.90347
O         38.07975        33.08783         2.10040
O         37.04274        38.08876        -2.54448
O         43.11755        33.41153         2.00871
O         45.30679        40.69062        -1.14156
O         39.61089        41.98764        -1.54643
O         47.62957        29.38706        -1.23022
O         51.28548        38.45418         0.54257
O         50.76434        38.61447        -3.01152
O         36.38367        35.03496         1.44087
O         40.39484        44.38744         1.87324
O         47.38707        35.73960         2.02363
O         35.94539        40.82727        -2.56182
O         39.77007        29.16924         1.86356
O         32.30625        37.60646        -2.83354
O         51.61420        35.44302         0.79809
O         49.13317        33.56357        -0.98706
O         37.29621        36.72141        -2.91419
H         38.26745        36.61137        -2.74600
O         39.80253        27.16543        -1.13296
H         40.60708        27.31344        -1.68984
O         44.03698        43.04599        -1.63591
H         44.11153        42.25749        -2.21445
O         31.19049        33.51717        -1.96857
H         31.52361        32.60785        -2.16661
O         41.50900        30.74189        -1.49838
H         42.28239        30.20187        -1.77590
O         48.56892        29.20282         2.25001
H         49.27287        29.52437         2.85006
O         50.94401        42.96351        -3.34549
H         51.13387        42.29735        -4.03978
O         36.36555        29.49362        -1.20002
H         37.14176        29.97457        -1.55678
O         42.48864        27.34066        -1.68267
H         42.70365        26.45817        -2.05755
O         33.69629        35.74827         1.11693
H         34.45539        35.42986         1.66897
O         37.70583        41.76725         1.54674
H         38.39982        41.13169         1.87858
O         46.39370        44.11589        -1.61184
H         46.23405        45.06536        -1.79831
O         42.64084        35.89343         2.44295
H         42.47453        34.94970         2.68482
O         33.90417        29.10229        -1.20388
H         34.40754        28.27419        -1.38398
O         46.05391        37.88542        -1.02512
H         46.84493        37.81710        -1.61967
O         43.93950        47.33281        -0.73748
H         43.05807        47.77617        -0.80161
O         32.72400        31.41047        -1.59693
H         33.15156        30.54272        -1.81212
O         46.82152        42.45597         1.56790
H         46.81911        41.51700         1.90817
O         44.52961        29.17569         1.71526
H         43.85115        29.53199         2.32742
O         32.85530        41.18375        -2.73634
H         33.37482        40.67130        -3.39685
O         39.29132        26.74259         2.45804
H         38.50665        26.44105         2.95880
O         39.17367        44.54137        -1.62844
H         38.26629        44.67414        -1.99349
O         45.35268        32.40121         2.39902
H         44.45706        32.53575         2.79991
O         40.49859        31.97903         1.80282
H         39.63795        32.37770         2.14758
O         40.33528        35.88953        -1.62872
H         40.54598        34.95691        -1.87826
O         39.15774        35.42255         1.80584
H         38.61096        34.67380         2.20388
O         34.81239        33.27595         2.01260
H         35.64810        33.17777         2.52264
O         34.47056        33.35642        -1.59200
H         33.94118        33.81978        -2.28473
O         45.36913        32.18601        -1.24972
H         45.41221        31.38913        -1.82502
O         39.39279        39.35515        -1.81560
H         39.26411        40.21971        -2.27350
O         32.50179        40.70562         0.82997
H         32.49252        41.30406         1.60736
O         33.62937        31.01790         1.92200
H         34.45867        30.77672         2.40584
O         45.79376        37.58982         2.59426
H         45.07463        37.25115         3.16841
O         38.75456        38.22874         1.60909
H         38.80279        37.30023         1.95826
O         35.29322        42.06607        -2.93942
H         36.05175        42.69143        -3.04196
O         44.00454        35.31502        -0.94867
H         44.57377        36.05919        -1.24941
O         47.01020        39.82994         1.98630
H         46.52686        39.15661         2.53580
O         52.25055        31.31501         1.21232
H         53.15073        30.94255         1.30915
O         44.99535        29.17353        -1.88150
H         45.81578        28.97298        -2.38712
O         38.30031        33.96705        -1.43200
H         38.89728        33.56241        -2.10599
O         48.17893        33.03759         2.53025
H         47.35019        32.74109         2.97305
O         32.34412        33.33619         1.46243
H         33.01489        32.83604         2.00044
O         49.83039        31.09985        -1.48891
H         49.19499        31.77033        -1.83351
O         42.39963        40.87699         2.02715
H         42.83903        40.24416         2.64808
O         40.51682        33.05487        -1.74257
H         41.15993        32.33305        -1.95883
O         48.57386        43.32773        -2.05217
H         49.30686        43.46612        -2.70020
O         41.59344        43.55684        -2.56124
H         40.61098        43.39574        -2.57486
O         36.50806        30.93732         2.20012
H         37.09874        31.71818         2.45546
O         41.90408        46.47518         2.90780
H         41.71934        45.55318         3.18842
O         31.18105        35.64104         0.95017
H         31.58991        34.93737         1.51491
O         38.85867        45.93280         3.26809
H         39.16371        45.00038         3.32368
O         44.11764        43.39291         1.96755
H         44.22580        44.16436         2.56287
O         39.94117        40.38469         1.65448
H         40.72431        40.75306         2.14150
O         35.10219        28.79178         2.17992
H         35.96391        28.54393         2.57399
O         41.95699        39.69040        -1.38360
H         41.19408        39.30591        -1.88638
O         32.90125        35.20354        -2.39833
H         32.47944        35.79021        -3.07296
O         41.39705        48.36063        -0.17195
H         41.27837        49.31841        -0.34202
O         49.30281        43.11471         1.43477
H         48.39245        42.91397         1.80674
O         48.71675        37.37522        -1.84040
H         49.38342        37.77302        -2.48682
O         31.39731        43.28744        -1.74156
H         31.55211        42.68223        -2.50261
