         620
 CSIRO Nanostructure Databank - Neutral Graphene Oxide Data Set
C         23.10999        27.25298         0.06654
C         23.08079        28.62734        -0.06484
C         23.21295        31.55803         0.25992
C         23.22155        32.96458         0.28058
C         23.08844        35.89190         0.01369
C         23.06345        37.27597         0.07755
C         23.01043        40.20892        -0.04015
C         22.99873        41.57191         0.09826
C         22.98853        44.50427         0.18095
C         22.95465        45.85162         0.26231
C         25.56050        24.42043         0.07422
C         24.39027        25.12008         0.21440
C         25.54094        27.27016        -0.14711
C         24.34775        26.55833         0.05693
C         25.51937        28.67782        -0.37218
C         24.26890        29.37070        -0.28312
C         25.37903        31.52439        -0.91197
C         24.24127        30.81267        -0.31834
C         25.38260        33.01728        -0.90264
C         24.24921        33.71947        -0.29234
C         25.49352        35.86553        -0.49883
C         24.26932        35.15904        -0.27527
C         25.43389        37.33398        -0.58062
C         24.21172        38.04831        -0.20087
C         25.47217        40.19056        -0.04416
C         24.22958        39.47008        -0.12393
C         25.45092        41.60270         0.19635
C         24.21284        42.31813         0.23193
C         25.42623        44.42482         0.62976
C         24.20362        43.73452         0.38576
C         25.43883        45.87625         0.61650
C         24.14094        46.64544         0.73531
C         25.34827        48.61579        -0.23405
C         24.20037        48.01717         0.11223
C         28.06931        22.95661        -0.43739
C         27.99827        24.39811        -0.46227
C         26.80891        25.08151        -0.15829
C         28.03723        27.27593        -0.50720
C         26.85315        26.56731         0.08315
C         27.99119        28.68233        -0.62164
C         26.75111        29.37537        -0.58158
C         27.97400        31.58653        -0.83113
C         26.73173        30.78861        -0.98646
C         27.96148        32.97366        -0.73627
C         26.74576        33.76952        -0.91745
C         27.98665        35.91202        -0.48592
C         26.73875        35.21320        -0.59364
C         28.01120        37.34922        -0.35586
C         26.76356        38.11220        -0.51565
C         27.94502        40.18728         0.16085
C         26.72022        39.51555        -0.09910
C         27.93319        41.59485         0.38389
C         26.67964        42.30086         0.38696
C         27.89687        44.38493         0.94291
C         26.64362        43.69585         0.63931
C         27.89160        45.92365         0.83540
C         26.62444        46.56637         0.48415
C         27.98432        48.66246        -0.13243
C         26.65123        47.92505        -0.10268
C         28.03135        50.12746        -0.24590
C         30.43179        22.92475        -1.09010
C         29.22262        22.26572        -0.68421
C         30.32742        24.37401        -1.35101
C         29.17575        25.13175        -0.85166
C         30.43251        27.27971        -1.15271
C         29.20643        26.54755        -0.84968
C         30.42580        28.72260        -0.99986
C         29.21946        29.42800        -0.81241
C         30.44957        31.57124        -0.61360
C         29.21089        30.85373        -0.71750
C         30.45732        32.97719        -0.41357
C         29.15285        33.68149        -0.12888
C         30.43523        35.84178        -0.22152
C         29.20290        35.17657        -0.38014
C         30.51623        37.35714        -0.29360
C         29.18877        38.05070        -0.09668
C         30.42158        40.16058         0.35416
C         29.18956        39.46170         0.13717
C         30.41471        41.58402         0.49736
C         29.17198        42.29597         0.53138
C         30.38598        44.43150         0.82461
C         29.17977        43.69923         0.74757
C         30.38891        45.87559         0.88445
C         29.17368        46.61395         0.68364
C         30.37044        48.74827         0.62913
C         29.19343        47.99651         0.41275
C         30.38750        50.14656         0.44801
C         29.16792        50.80975         0.02825
C         32.87719        20.12397        -1.25062
C         31.71609        20.80822        -1.21930
C         32.89344        22.99536        -1.42962
C         31.64384        22.25801        -1.27958
C         32.89111        24.41399        -1.51321
C         31.62708        25.15403        -1.64917
C         32.87666        27.36328        -1.79134
C         31.61087        26.60957        -1.45847
C         32.86517        28.74134        -1.18290
C         31.67878        29.43079        -0.95557
C         32.89620        31.57427        -0.56300
C         31.68673        30.85766        -0.67913
C         32.91388        32.98362        -0.41160
C         31.67023        33.69130        -0.30909
C         32.88522        35.84079         0.12857
C         31.65037        35.12801        -0.12849
C         32.90356        37.19075         0.41025
C         31.59613        37.93281         0.62573
C         32.85499        40.14850         0.63762
C         31.66354        39.45042         0.47731
C         32.87734        41.59254         0.67847
C         31.63567        42.30479         0.65137
C         32.85841        44.44968         0.91270
C         31.63339        43.72888         0.79287
C         32.84394        45.88230         1.02997
C         31.60750        46.57554         0.99347
C         32.85641        48.77843         1.02779
C         31.55366        48.06050         1.26608
C         32.84431        50.18424         0.86416
C         31.60234        50.88478         0.63823
C         32.82153        53.00295         0.58397
C         31.63797        52.29845         0.52842
C         35.16150        19.03451         0.25588
C         35.21649        20.28205        -0.31319
C         34.21829        20.79321        -1.34138
C         35.34512        23.02780        -1.24802
C         34.12539        22.30419        -1.30443
C         35.33754        24.43026        -1.40915
C         34.11376        25.14536        -1.46876
C         35.38870        27.24430        -1.40054
C         34.14522        26.57666        -1.50195
C         35.37357        28.72969        -1.42062
C         34.14199        29.38238        -0.89564
C         35.43558        31.60437        -0.72231
C         34.17490        30.84761        -0.53623
C         35.40914        33.02747        -0.46695
C         34.17166        33.66880        -0.26405
C         35.47976        35.82286         0.25475
C         34.14264        35.05702         0.20811
C         35.44426        37.28477         0.31497
C         34.16173        37.89854         0.71209
C         35.39755        40.13128         0.59985
C         34.12892        39.40860         0.82001
C         35.36235        41.56857         0.92533
C         34.08630        42.31006         0.83877
C         35.32777        44.47654         0.99209
C         34.09840        43.73232         0.92093
C         35.28894        45.89116         1.14415
C         34.07799        46.60759         1.16546
C         35.28701        48.80938         1.22218
C         34.07837        48.07233         1.17236
C         35.30466        50.22286         1.08013
C         34.07215        50.91929         0.89118
C         35.30348        53.06207         0.81726
C         34.07077        52.33940         0.74514
C         35.37150        54.45790         0.44904
C         37.48743        19.12170         1.07279
C         36.27006        18.47112         0.95476
C         37.56765        20.54413         0.70827
C         36.35430        21.14835        -0.01111
C         37.78812        23.04082        -0.72479
C         36.55922        22.38983        -0.77900
C         37.92444        24.37416        -1.32334
C         36.61108        25.12831        -1.58494
C         37.90498        27.25696        -1.17732
C         36.62196        26.57773        -1.44153
C         37.91629        28.78113        -1.19345
C         36.63100        29.51342        -1.44818
C         37.81289        31.71781        -1.35102
C         36.59195        30.95739        -1.09030
C         37.86063        33.11588        -0.93517
C         36.65672        33.76233        -0.50312
C         37.84321        35.93556        -0.50267
C         36.68138        35.15056        -0.24497
C         37.78615        37.34613        -0.37635
C         36.59302        38.03020         0.05484
C         37.79434        40.26931         0.08292
C         36.57888        39.48579         0.26879
C         37.82255        41.62994         0.28795
C         36.65793        42.34871         0.82933
C         37.78925        44.55180         0.73113
C         36.59994        43.82912         0.81828
C         37.82936        45.95894         1.00860
C         36.56036        46.60459         1.37674
C         37.82878        48.84349         1.26164
C         36.56128        48.11925         1.46866
C         37.81068        50.25647         1.24823
C         36.53525        50.95819         1.17635
C         37.72604        53.14632         1.40819
C         36.50581        52.36745         1.10805
C         37.74699        54.63623         1.09001
C         36.52469        55.17514         0.47136
C         39.78621        16.45321         2.40698
C         38.65004        17.13302         2.05835
C         39.91295        19.18454         1.53743
C         38.69571        18.49109         1.56725
C         40.03178        20.49368         0.95344
C         38.87903        21.17990         0.49779
C         40.25198        23.06836        -0.32711
C         38.96575        22.45001        -0.12710
C         40.36074        24.38837        -0.89051
C         39.18851        25.12660        -1.15340
C         40.43484        27.27947        -1.22817
C         39.20121        26.54284        -1.27372
C         40.40121        28.75544        -1.25697
C         39.19174        29.46750        -1.36137
C         40.37746        31.69881        -1.26628
C         39.16521        30.93351        -1.53190
C         40.33463        33.11747        -1.18555
C         39.08164        33.82286        -1.01039
C         40.28282        35.96053        -0.99988
C         39.07731        35.24630        -0.83869
C         40.24116        37.43760        -1.09693
C         38.94579        38.14445        -0.81980
C         40.30598        40.28708        -0.34439
C         38.98335        39.62977        -0.54407
C         40.32990        41.70582        -0.05823
C         39.03270        42.41539        -0.04936
C         40.29937        44.53581         0.54079
C         39.03109        43.89457         0.28017
C         40.29153        45.93154         0.95025
C         39.01814        46.68261         1.00551
C         40.26754        48.86204         1.02576
C         39.05238        48.13058         1.14114
C         40.28075        50.27700         1.16203
C         39.04110        50.96200         1.29166
C         40.32729        53.18903         1.31896
C         39.03372        52.41900         1.52597
C         40.27925        54.62007         0.93924
C         39.05563        55.31697         0.86165
C         40.24922        57.36207         0.30247
C         39.06297        56.69448         0.54884
C         42.23432        16.39798         2.60425
C         41.06251        17.09449         2.37650
C         42.43701        19.12636         1.78248
C         41.10566        18.59834         2.25383
C         42.52258        20.36912         1.17615
C         41.31606        21.09961         0.75903
C         42.74140        22.77068        -0.42272
C         41.40668        22.34010         0.11228
C         42.87311        24.24326        -0.78508
C         41.67106        25.00660        -1.36664
C         42.87780        27.35840        -1.35333
C         41.67461        26.57569        -1.27099
C         42.85178        28.80909        -1.23961
C         41.61746        29.51260        -1.24915
C         42.80024        31.71375        -1.13885
C         41.60643        30.97324        -1.19272
C         42.81117        33.14364        -1.12849
C         41.55720        33.86453        -1.16258
C         42.76206        36.06987        -1.28518
C         41.51565        35.28396        -1.15547
C         42.80809        37.47293        -0.88417
C         41.53794        38.21503        -0.94121
C         42.75707        40.20575         0.09424
C         41.49059        39.59715        -0.45182
C         42.78145        41.71118         0.01033
C         41.53293        42.40579         0.01859
C         42.82443        44.55068         0.38585
C         41.53237        43.91712        -0.07002
C         42.84221        45.97714         0.54537
C         41.57827        46.69509         0.86143
C         42.80402        48.84760         0.76806
C         41.49312        48.15793         0.49341
C         42.80753        50.26987         1.14605
C         41.53250        51.02907         1.11159
C         42.79096        53.17952         0.92295
C         41.56891        52.42211         1.06054
C         42.76898        54.57175         0.67669
C         41.50332        55.28245         0.64355
C         42.70436        57.36104         0.05940
C         41.47848        56.66886         0.32974
C         43.49287        17.03814         2.52391
C         44.92867        18.98470         1.95167
C         43.62274        18.36216         2.10130
C         45.01158        20.32191         1.46774
C         43.82114        20.98256         0.99052
C         45.19717        22.83955         0.22968
C         43.92397        22.21230         0.33779
C         45.33890        23.97900        -0.60776
C         44.13913        24.55699        -1.18887
C         45.36637        27.49572        -1.30677
C         44.16905        26.81610        -1.59744
C         45.29623        28.88328        -0.99125
C         44.06584        29.54112        -1.13467
C         45.29661        31.71437        -0.83095
C         44.09743        31.01606        -1.40305
C         45.27118        33.12218        -0.71959
C         44.04082        33.82800        -0.98101
C         45.27223        36.02321        -0.68608
C         44.11469        35.27971        -1.14847
C         45.27139        37.41723        -0.64525
C         44.01879        38.15057        -0.69451
C         45.24146        40.25036        -0.26414
C         44.03286        39.55284        -0.37813
C         45.26093        41.66963         0.02962
C         44.00111        42.38814         0.13190
C         45.26077        44.48128         0.76344
C         43.99863        43.81383         0.39359
C         45.29997        46.00606         0.70450
C         44.01732        46.71168         0.52390
C         45.24191        48.89679         0.37031
C         43.98344        48.15811         0.63148
C         45.33866        50.32955         0.62852
C         44.13095        51.01151         1.14136
C         45.35920        53.23539         0.64858
C         44.08641        52.50844         1.09326
C         45.21699        54.61402         0.16727
C         43.97721        55.28552         0.32719
C         43.89406        56.69409         0.05252
C         47.35307        18.95855         2.25140
C         46.11880        18.31397         2.29654
C         47.44884        20.30041         1.86372
C         46.27515        20.98434         1.43465
C         47.56677        23.06043         0.87757
C         46.35351        22.31224         0.87338
C         47.69320        24.24990         0.12462
C         46.60367        24.57690        -0.71012
C         47.69459        27.42311        -0.50561
C         46.63263        26.84109        -1.18442
C         47.67964        28.85902        -0.36172
C         46.50893        29.57496        -0.66480
C         47.70470        31.70995        -0.37737
C         46.48781        31.00861        -0.59488
C         47.69606        33.13113        -0.34823
C         46.47227        33.82260        -0.43978
C         47.74313        35.99145        -0.38200
C         46.44205        35.28566        -0.10342
C         47.74923        37.39308        -0.44839
C         46.50507        38.13447        -0.45527
C         47.72578        40.27562        -0.32058
C         46.49942        39.54378        -0.37428
C         47.73094        41.66411        -0.10943
C         46.48968        42.33662         0.14212
C         47.83883        44.52937         0.45145
C         46.54836        43.73832         0.60474
C         47.78247        46.00932         0.32687
C         46.57966        46.67943         0.40620
C         47.79167        48.87975         0.10416
C         46.53639        48.12391         0.12455
C         47.75079        50.28205         0.03499
C         46.52420        51.01181         0.31511
C         47.68069        53.13050        -0.21035
C         46.55153        52.45035         0.26466
C         47.56540        54.52635        -0.51717
C         46.37552        55.21227        -0.40180
C         50.02737        20.46839         2.24390
C         48.69664        21.07913         2.07889
C         49.98182        23.30819         1.66825
C         48.69864        22.52738         1.65620
C         49.98799        24.70857         1.15318
C         48.97658        25.10329         0.06045
C         50.09272        27.45412         0.36565
C         48.78861        26.64742         0.12821
C         50.13273        28.87598         0.00001
C         48.91418        29.57327        -0.15541
C         50.16961        31.69149        -0.24758
C         48.92842        30.99223        -0.25172
C         50.17212        33.12163        -0.31891
C         48.95265        33.83706        -0.30673
C         50.20700        35.95431        -0.45394
C         48.95731        35.26266        -0.38511
C         50.20057        37.37959        -0.55888
C         48.99827        38.07911        -0.52574
C         50.25513        40.32678        -0.77709
C         49.00865        39.55137        -0.39956
C         50.07747        41.79725        -0.90665
C         48.95628        42.43157        -0.30144
C         50.17907        44.58604        -0.40397
C         49.00013        43.84025        -0.14859
C         50.21035        46.01939        -0.24763
C         49.00987        46.72616         0.02463
C         50.22811        48.85605        -0.27412
C         49.01367        48.15156        -0.02195
C         50.19997        50.28651        -0.37738
C         48.96793        51.00057        -0.22792
C         50.14167        53.08633        -0.68196
C         48.93499        52.41292        -0.39010
C         51.18930        21.19813         2.14046
C         52.50236        23.22529         1.44762
C         51.26177        22.59592         1.85490
C         52.54855        24.58278         1.03207
C         51.34057        25.45379         1.25162
C         52.57128        27.38064         0.25897
C         51.35298        26.73674         0.48114
C         52.60592        28.79241        -0.01862
C         51.37763        29.54209        -0.10254
C         52.62884        31.68245        -0.35871
C         51.39197        30.96984        -0.23166
C         52.64724        33.07587        -0.41354
C         51.42267        33.82440        -0.36214
C         52.67027        35.98586        -0.00094
C         51.42378        35.23486        -0.38144
C         52.73423        37.40638        -0.50323
C         51.47475        38.07088        -0.88628
C         52.82432        40.20453        -1.07486
C         51.49235        39.54292        -1.20197
C         52.96967        41.54992        -1.41438
C         51.10765        42.61838        -1.37491
C         52.64414        44.56400        -0.95118
C         51.32961        43.93626        -0.93595
C         52.65681        45.97847        -0.75008
C         51.43251        46.70808        -0.50411
C         52.66715        48.85145        -0.69037
C         51.44141        48.13470        -0.47961
C         52.65680        50.27201        -0.75338
C         51.40601        50.99687        -0.64441
C         51.34088        52.40125        -0.79367
C         54.92090        23.10756         1.05113
C         53.73561        22.50205         1.40777
C         54.99045        24.48833         0.71636
C         53.77009        25.22734         0.69712
C         55.03843        27.32156         0.28092
C         53.80448        26.64304         0.39916
C         55.07387        28.74659         0.07008
C         53.85548        29.44578        -0.12337
C         55.19659        31.60258        -0.29588
C         53.87494        30.88127        -0.44841
C         55.11136        33.06998        -0.03264
C         53.94869        33.81087        -0.68146
C         55.15558        35.95162        -0.10071
C         53.94864        35.25532        -0.25985
C         55.16342        37.39734        -0.09172
C         53.92520        38.09939        -0.37344
C         55.14186        40.28605        -0.34363
C         53.96715        39.53523        -0.59023
C         55.16793        41.70017        -0.49240
C         54.00416        42.38673        -0.96072
C         55.12468        44.55078        -0.81550
C         53.89490        43.83758        -0.96661
C         55.12383        45.98058        -0.85056
C         53.89299        46.69389        -0.80695
C         55.12447        48.83980        -0.93919
C         53.89765        48.13069        -0.80617
C         55.08328        50.25613        -1.00024
C         53.89143        50.94734        -0.92109
C         57.48171        24.45321         0.44316
C         56.24478        25.16723         0.49218
C         57.52134        27.27771         0.29170
C         56.26978        26.58169         0.35974
C         57.57111        28.70742         0.31011
C         56.33275        29.45976         0.19268
C         57.56523        31.61549         0.57022
C         56.36228        30.85767         0.18671
C         57.63467        33.07770         0.36865
C         56.37262        33.81963         0.28283
C         57.62453        35.96515         0.16459
C         56.40003        35.27051         0.06366
C         57.62005        37.40604         0.15234
C         56.37091        38.09317         0.05035
C         57.65780        40.33801         0.15574
C         56.33189        39.56883         0.14542
C         57.63544        41.76020        -0.23729
C         56.40127        42.44140        -0.40094
C         57.61303        44.55517        -0.72826
C         56.37271        43.84480        -0.66064
C         57.60227        45.97769        -0.88635
C         56.36654        46.69710        -0.90094
C         57.62274        48.79049        -1.10861
C         56.37483        48.11578        -0.98943
C         58.68044        25.10812         0.30619
C         59.97283        27.21903         0.18673
C         58.73473        26.53320         0.25848
C         60.01379        28.60033         0.22263
C         58.82629        29.36426         0.32144
C         60.09148        31.63017         0.25858
C         58.89916        30.82664         0.56576
C         60.06690        32.98981         0.23245
C         58.84194        33.76370         0.32922
C         60.04965        35.97073         0.35211
C         58.85497        35.22803         0.27852
C         60.05537        37.36113         0.28554
C         58.86368        38.12160         0.17759
C         60.07042        40.27893        -0.25990
C         58.89920        39.55872         0.03563
C         60.06591        41.65968        -0.44397
C         58.86691        42.42876        -0.45175
C         60.06611        44.59515        -0.80750
C         58.85602        43.85680        -0.67161
C         60.05772        45.96210        -0.96567
C         58.83189        46.68398        -0.99400
C         58.81355        48.09944        -1.11962
O         35.90089        29.24316        -2.70482
O         54.71959        31.20579        -1.63046
O         36.58524        47.28339         2.68155
O         34.88002        35.22004         1.46239
O         25.88596        30.98886        -2.16589
O         58.21993        31.18838         1.80539
O         55.37016        33.41023         1.34490
O         25.93964        33.54958        -2.12475
O         49.11084        27.15787         1.43662
O         56.89252        40.07932         1.39378
O         52.01501        42.07755        -2.28574
O         44.30880        25.55359        -2.16049
O         37.41219        24.54208        -2.68418
O         44.97966        53.11214         2.07281
O         40.90591        37.98693        -2.26624
O         34.27214        29.81591         0.51179
O         39.81541        52.87296         2.66635
O         43.58884        50.47809         2.39216
O         36.17273        41.84660         2.12631
O         38.86940        43.36857        -1.16945
O         47.45086        43.94915         1.73937
O         41.12246        46.30421         2.17623
O         51.39292        38.59743        -2.29723
O         46.79253        25.55221        -1.69996
O         38.64520        39.12552        -1.87778
O         34.15314        38.56564         2.03737
O         26.07878        37.86210        -1.78824
O         27.45801        47.97543        -1.33597
O         49.52864        24.51352         2.50601
O         38.39195        31.43128        -2.66837
O         45.24933        45.26383         1.98416
O         49.97009        39.98864         0.63252
O         30.73834        24.70511        -2.72195
O         37.53096        54.14437         2.45418
O         45.67363        48.51557        -1.00708
O         37.83853        28.05156         0.08508
O         36.59358        21.37366         1.42343
O         43.58289        35.73719        -2.43506
O         48.38148        22.15947         3.04192
O         27.82972        45.22571         2.13390
O         34.79201        20.44075        -2.64504
H         34.23181        20.85260        -3.33648
O         54.16794        33.79965        -2.12444
H         54.25264        32.85109        -2.39295
O         49.62665        24.80740        -1.19901
H         48.96089        24.92677        -1.91234
O         31.31857        48.18130         2.72420
H         32.07124        47.74596         3.17934
O         23.94073        46.86564         2.17509
H         23.99307        45.99105         2.61563
O         44.28487        31.12042        -2.87845
H         43.44946        30.82558        -3.30070
O         32.86257        27.55192        -3.25684
H         33.70662        27.98620        -3.50902
O         28.94272        33.55914         1.33669
H         29.71293        33.98071         1.77612
O         31.21348        37.67870         2.00206
H         31.97649        37.93974         2.56534
O         41.69774        24.72318        -2.80752
H         42.56305        25.05653        -3.14111
O         42.70783        39.89970         1.54790
H         43.48096        40.33659         1.96689
O         51.51605        25.93103         2.62499
H         50.74523        25.58100         3.14257
O         42.79541        22.10255        -1.74815
H         42.17566        22.59290        -2.33700
O         41.33304        48.15732        -0.96831
H         41.36631        49.08504        -1.28236
O         52.55033        36.09679         1.47978
H         53.41676        36.40568         1.82331
O         30.94494        37.68659        -1.65026
H         30.25051        37.37889        -2.27037
O         40.98664        19.09224         3.64826
H         40.12686        18.76902         3.99365
O         27.06296        26.68681         1.56196
H         26.29998        26.24119         1.99033
O         46.26049        35.34719         1.36676
H         47.06391        34.96171         1.77763
O         41.43967        44.24083        -1.50695
H         40.55588        43.90572        -1.80798
H         22.17682        26.68835         0.20336
H         22.11535        29.15061        -0.03217
H         22.37351        31.03945         0.74302
H         22.38685        33.47399         0.78059
H         22.15387        35.34604         0.19954
H         22.12082        37.77128         0.34650
H         22.05276        39.67814        -0.12505
H         22.03084        42.08800         0.13737
H         22.07356        43.97318        -0.11619
H         22.01511        46.39154         0.07101
H         25.52120        23.32238         0.09462
H         23.44396        24.58388         0.37413
H         25.33463        49.61400        -0.69573
H         23.24452        48.54793        -0.01716
H         27.17863        22.38786        -0.13925
H         27.13703        50.66212        -0.59415
H         29.21541        21.17435        -0.56084
H         29.16380        51.90146        -0.08870
H         32.85398        19.02471        -1.27533
H         30.77507        20.24109        -1.18571
H         32.78638        54.09816         0.51767
H         30.70476        52.86336         0.40594
H         34.29103        18.38577         0.08415
H         34.47485        54.92937         0.02361
H         36.16655        17.42965         1.28787
H         36.53732        56.18228         0.03205
H         39.73248        15.38921         2.68161
H         37.68637        16.60897         2.09440
H         40.24260        58.43838         0.07986
H         38.11953        57.25556         0.52533
H         42.19391        15.32114         2.82614
H         42.66850        58.44018        -0.14703
H         44.38535        16.43752         2.74330
H         44.81504        57.25438        -0.15479
H         48.25263        18.41517         2.57235
H         46.08917        17.27470         2.64898
H         48.43164        55.05819        -0.93230
H         46.34238        56.25572        -0.74286
H         50.09664        19.38451         2.41249
H         50.14952        54.17751        -0.80401
H         52.13169        20.64387         2.25404
H         52.25062        52.97689        -1.00890
H         55.83817        22.50353         1.06857
H         53.75987        21.44170         1.69146
H         56.01200        50.83056        -1.11155
H         53.91849        52.04369        -0.97098
H         57.47997        23.35667         0.50282
H         57.64941        49.88467        -1.19339
H         59.62002        24.53875         0.26047
H         60.90663        26.64066         0.14280
H         60.98785        29.10849         0.21555
H         61.03309        31.11137         0.02688
H         61.00638        33.52227         0.02799
H         61.01199        35.45309         0.46496
H         61.02286        37.87854         0.34446
H         61.02952        39.74901        -0.34546
H         61.02720        42.15279        -0.63960
H         61.03114        44.07236        -0.77315
H         61.00436        46.51371        -1.05754
H         59.76609        48.64083        -1.21106
