         204
 CSIRO Nanostructure Databank - Neutral Graphene Oxide Data Set
C        -10.96489         0.68358        -0.91001
C         -9.79187         1.43025        -0.48719
C         -8.64683         0.73894        -0.11179
C         -7.51908         1.46829         0.57952
C         -6.19465         0.73038         0.60124
C         -5.00447         1.39284         0.74192
C         -3.73370         0.67836         0.76762
C         -2.53160         1.40529         0.61853
C         -1.28607         0.65548         0.21261
C         -0.01052         1.40034         0.47924
C          1.20539         0.68812         0.57405
C          2.44639         1.40193         0.55330
C          3.67876         0.68746         0.70026
C          4.91995         1.45696         0.86818
C          6.27267         0.67707         0.77898
C          7.46438         1.43965         0.41153
C          8.61327         0.71783        -0.05922
C          9.84463         1.46178        -0.28061
C         11.05073         0.68839        -0.55584
C         -9.78374         2.86337        -0.51406
C         -8.60442         3.58520        -0.29573
C         -7.39912         2.89701         0.11846
C         -6.21674         3.57613         0.29967
C         -5.02367         2.89526         0.93748
C         -3.71500         3.58382         0.62441
C         -2.51200         2.83640         0.56468
C         -1.26156         3.53753         0.40655
C         -0.01850         2.80949         0.42424
C          1.22605         3.51676         0.34044
C          2.44134         2.80281         0.35539
C          3.71651         3.49527        -0.04684
C          4.97064         2.86774         0.52015
C          6.18330         3.52910         0.46125
C          7.44537         2.83656         0.43790
C          8.66611         3.59330         0.14548
C          9.86007         2.83153        -0.16057
C         -8.54978         5.00219        -0.45660
C         -7.37503         5.71206        -0.23577
C         -6.16322         5.00213         0.11868
C         -4.96354         5.69154         0.32423
C         -3.71053         4.99066         0.46707
C         -2.46789         5.69373         0.30465
C         -1.24705         4.94921         0.27919
C          0.00259         5.64767         0.11914
C          1.21377         4.94629         0.18032
C          2.46932         5.66622         0.12022
C          3.66183         4.98228         0.14556
C          4.93026         5.72111         0.05479
C          6.21345         4.98553         0.17506
C          7.45560         5.74903         0.59245
C          8.67763         4.97011         0.15919
C         -7.33955         7.14727        -0.36572
C         -6.20321         7.87056        -0.08926
C         -4.98380         7.16133         0.34807
C         -3.66123         7.90356         0.27642
C         -2.42705         7.11206         0.11595
C         -1.23565         7.77958        -0.19645
C          0.00971         7.06598        -0.17096
C          1.21762         7.75045        -0.37258
C          2.46520         7.10979        -0.10386
C          3.65588         7.84257        -0.09774
C          4.90849         7.18418         0.42909
C          6.20667         7.86999         0.05517
C          7.38420         7.18915         0.11793
C         -6.13373         9.30381        -0.25154
C         -4.94808         9.98225        -0.27640
C         -3.67159         9.31523        -0.16533
C         -2.48269         9.93947        -0.44295
C         -1.22444         9.22109        -0.44507
C         -0.05361         9.87454        -0.73644
C          1.22484         9.12980        -0.97765
C          2.48481         9.90421        -0.69428
C          3.65862         9.25856        -0.38006
C          4.94650         9.94619        -0.38728
C          6.12950         9.29020        -0.25076
C        -10.99893        -0.68156        -0.91260
C         -9.83562        -1.46528        -0.57548
C         -8.59313        -0.70983        -0.30747
C         -7.39578        -1.46826         0.20802
C         -6.26377        -0.72477         0.83083
C         -4.95516        -1.50521         0.99454
C         -3.70783        -0.75186         0.80933
C         -2.49541        -1.48996         0.71516
C         -1.24326        -0.79160         0.63630
C         -0.03475        -1.47552         0.73428
C          1.22543        -0.74521         0.69415
C          2.45026        -1.41403         0.81218
C          3.70227        -0.71340         0.79046
C          4.96166        -1.44795         0.65465
C          6.18805        -0.74907         0.46978
C          7.34473        -1.40640        -0.01949
C          8.54511        -0.65368        -0.29275
C          9.66788        -1.32129        -1.05195
C         10.99160        -0.63001        -0.83544
C         -9.82566        -2.84713        -0.57032
C         -8.68548        -3.62706        -0.15817
C         -7.54384        -2.92463         0.46092
C         -6.22958        -3.69604         0.70030
C         -4.96256        -2.95215         0.74223
C         -3.75107        -3.63383         0.60195
C         -2.50423        -2.91612         0.70390
C         -1.27928        -3.64556         0.75168
C         -0.02112        -2.92493         0.84410
C          1.18800        -3.60609         0.92773
C          2.45126        -2.86671         1.03475
C          3.76411        -3.62982         0.85121
C          4.96363        -2.85331         0.49309
C          6.13621        -3.54362         0.07670
C          7.32330        -2.81688        -0.20345
C          8.54356        -3.51898        -0.57132
C          9.70171        -2.80610        -0.86160
C         -8.63652        -5.00696        -0.26691
C         -7.42383        -5.75721        -0.06619
C         -6.21292        -5.09855         0.28076
C         -4.96971        -5.77145         0.19746
C         -3.74037        -5.06106         0.39961
C         -2.51082        -5.75949         0.39054
C         -1.29758        -5.05370         0.65611
C         -0.06655        -5.83188         0.84676
C          1.25528        -5.07488         1.01402
C          2.50175        -5.77470         0.61583
C          3.70190        -5.06317         0.50039
C          4.91016        -5.71543         0.10299
C          6.11821        -4.97751        -0.06551
C          7.32766        -5.66566        -0.40920
C          8.51769        -4.94178        -0.61536
C         -7.37922        -7.14389        -0.36207
C         -6.17262        -7.85432        -0.35133
C         -4.94395        -7.16761        -0.09059
C         -3.70213        -7.86565        -0.11786
C         -2.48991        -7.17800         0.14501
C         -1.24666        -7.88697         0.09326
C         -0.02585        -7.22583         0.37091
C          1.21339        -7.88724         0.21924
C          2.46093        -7.17197         0.30615
C          3.67437        -7.84589        -0.01281
C          4.89553        -7.12598        -0.10321
C          6.12052        -7.80765        -0.42798
C          7.30190        -7.08502        -0.55867
C         -6.12319        -9.26793        -0.63717
C         -4.93796        -9.94233        -0.66924
C         -3.68383        -9.27441        -0.41845
C         -2.47032        -9.95545        -0.47476
C         -1.23684        -9.28609        -0.23666
C         -0.00259        -9.96087        -0.31898
C          1.21645        -9.28222        -0.13724
C          2.45941        -9.95325        -0.32746
C          3.66386        -9.26249        -0.28754
C          4.91516        -9.92886        -0.55933
C          6.08698        -9.23739        -0.62368
O          9.35304        -1.10885        -2.48914
H          9.33760        -0.13873        -2.63663
O          3.25757        -3.30493         2.18891
O         -7.46989        -1.14659        -1.21513
O          3.83246         3.29989        -1.50892
H          4.54584         3.92012        -1.80364
O         -1.38207         0.59253        -1.27412
H         -0.52967         0.23471        -1.60342
O         -5.25331         3.06135         2.39032
H         -4.47222         2.69404         2.85720
O         -5.81259        -1.11345         2.14464
O         -4.34743         7.71127         1.55884
O          0.56127        -5.64837         2.16600
O          5.71137         5.36288        -1.15676
O         -7.18819        -3.37797         1.78054
O          5.67678         1.07181         2.04886
O          1.26632         8.90506        -2.45608
H          2.07015         8.37167        -2.63793
O          4.80265         7.20983         1.88541
H          4.76712         8.14818         2.16536
O          7.45161         5.76766         2.05158
H          8.28118         6.19273         2.35208
O         -7.90718         1.55659         1.99709
H         -7.20164         2.07983         2.44707
H         11.91323        -1.19618        -1.03903
H         12.02028         1.20705        -0.50117
H         10.80158         3.38020        -0.31736
H          9.61463         5.50918        -0.05360
H          8.32851         7.71665        -0.09811
H          7.07483         9.84482        -0.35605
H          4.94488        11.02618        -0.59831
H          2.49928        10.97713        -0.94072
H         -0.07131        10.95588        -0.94220
H         -2.47559        11.00106        -0.73404
H         -4.94616        11.06696        -0.46085
H         -7.07511         9.84815        -0.41896
H         -8.25300         7.66664        -0.69336
H         -9.46723         5.54269        -0.73384
H        -10.69581         3.39607        -0.82112
H        -11.86255         1.25246        -1.19368
H        -11.92305        -1.21054        -1.18897
H        -10.73254        -3.39045        -0.87797
H         -9.51243        -5.54476        -0.66079
H         -8.31291        -7.66740        -0.61669
H         -7.06767        -9.79603        -0.83449
H         -4.91931       -11.01919        -0.89293
H         -2.45751       -11.02909        -0.71504
H          0.01053       -11.03219        -0.56899
H          2.45385       -11.02756        -0.56512
H          4.90001       -11.01524        -0.73107
H          7.03027        -9.75819        -0.84445
H          8.23542        -7.60946        -0.81213
H          9.43800        -5.48405        -0.87840
H         10.62069        -3.34927        -1.12941
