         620
 CSIRO Nanostructure Databank - Neutral Graphene Oxide Data Set
C         22.91103        27.34787        -0.59077
C         22.88737        28.71269        -0.55577
C         22.95908        31.61257        -0.00736
C         23.00551        32.96328         0.20814
C         23.07912        35.88755         0.60208
C         23.11102        37.25348         0.79870
C         23.17194        40.11301         1.43487
C         23.16652        41.47348         1.55142
C         23.07553        44.41377         1.23450
C         23.06280        45.78371         1.14038
C         25.36681        24.51541        -0.20909
C         24.18494        25.21120        -0.23901
C         25.35769        27.32367        -0.59862
C         24.16963        26.63464        -0.49130
C         25.34457        28.74795        -1.08838
C         24.09697        29.49132        -0.63382
C         25.31860        31.66072        -0.76809
C         24.10672        30.87079        -0.44861
C         25.40211        33.06287        -0.32677
C         24.22493        33.72145         0.09765
C         25.53243        35.77447         0.50234
C         24.27102        35.11976         0.41856
C         25.56158        37.16219         1.03793
C         24.32634        37.95806         0.99620
C         25.61630        40.08202         1.11977
C         24.37891        39.36598         1.19867
C         25.60043        41.54948         1.14782
C         24.35924        42.25742         1.39214
C         25.53543        44.45001         1.34748
C         24.29652        43.67084         1.33125
C         25.51814        45.89159         1.07707
C         24.27464        46.55653         1.05629
C         25.44444        48.68488         0.93567
C         24.26097        47.97281         0.96213
C         27.91220        23.06311        -0.33913
C         27.85670        24.49822        -0.30961
C         26.63221        25.18175        -0.27174
C         27.89173        27.36623        -0.50556
C         26.62082        26.67910        -0.09075
C         27.86250        28.78271        -0.70556
C         26.64351        29.46944        -0.83063
C         27.90668        31.66705        -0.91798
C         26.64460        30.91280        -1.01513
C         27.85227        33.06132        -0.75800
C         26.64655        33.74818        -0.36884
C         27.97568        35.81617         0.07789
C         26.70451        35.10853         0.08318
C         28.07121        37.12932         0.65396
C         26.90819        37.90970         1.14749
C         28.02838        40.17787         0.72647
C         26.86548        39.40396         1.03996
C         27.89363        41.55833         0.12547
C         26.74956        42.26518         0.80282
C         27.99490        44.47512         0.51625
C         26.85463        43.69363         1.04259
C         27.97396        45.90872         0.62447
C         26.73547        46.60685         0.90589
C         27.95151        48.77109         0.86337
C         26.70578        48.03032         0.90009
C         28.00109        50.17428         1.02961
C         30.35865        23.07475        -0.21885
C         29.09816        22.39074        -0.31662
C         30.33641        24.52568        -0.25935
C         29.11115        25.21895        -0.34020
C         30.34419        27.35403        -0.69356
C         29.10227        26.65648        -0.49518
C         30.31784        28.75785        -0.89242
C         29.11352        29.49555        -0.86713
C         30.38672        31.62364        -1.02866
C         29.13590        30.93218        -0.98756
C         30.41892        33.08738        -1.10124
C         29.07411        33.85534        -0.94345
C         30.42746        35.97430        -0.67666
C         29.12122        35.22932        -0.45995
C         30.49242        37.27849         0.07098
C         29.36166        37.64819         0.80769
C         30.49768        40.26557         0.32212
C         29.32610        39.71811         0.92245
C         30.42668        41.67801         0.05585
C         29.19034        42.34478         0.15342
C         30.37539        44.49962        -0.21971
C         29.14510        43.76705         0.13302
C         30.37944        46.01739        -0.04765
C         29.14985        46.66553         0.42595
C         30.42362        48.79027         0.61738
C         29.17813        48.07397         0.65310
C         30.43746        50.19600         0.80705
C         29.20334        50.86114         1.00734
C         32.79945        20.26381        -0.31439
C         31.61074        20.94048        -0.25092
C         32.84887        23.03832         0.27341
C         31.56391        22.36190        -0.15197
C         32.84193        24.54904         0.03002
C         31.57393        25.25144        -0.28196
C         32.85114        27.29006        -0.83995
C         31.58649        26.62555        -0.58450
C         32.86104        28.71935        -1.23735
C         31.57027        29.47532        -1.20639
C         32.86662        31.61478        -0.95149
C         31.61708        30.93830        -1.03197
C         32.86765        33.04677        -0.74130
C         31.67942        33.75825        -0.77287
C         32.92752        35.91439        -0.34641
C         31.63292        35.14914        -0.19336
C         32.90619        37.35044        -0.29266
C         31.67807        38.05360         0.00932
C         32.89064        40.21657        -0.19920
C         31.68039        39.49946         0.11338
C         32.88761        41.64883        -0.19666
C         31.66578        42.38877        -0.09587
C         32.87952        44.53176        -0.13339
C         31.66448        43.79602        -0.16251
C         32.88409        45.96504         0.03951
C         31.67081        46.69711         0.15697
C         32.91242        48.78764         0.52283
C         31.66820        48.08043         0.43934
C         32.93259        50.20837         0.69639
C         31.70186        50.92549         0.80231
C         32.97099        53.01199         0.86302
C         31.75280        52.32639         0.89263
C         35.19457        18.83546        -1.07177
C         35.26760        20.20371        -0.71265
C         34.06518        20.94891        -0.40028
C         35.35203        23.03143        -0.40549
C         34.10781        22.33563        -0.23158
C         35.38943        24.45460        -0.52803
C         34.14269        25.24240        -0.31818
C         35.28715        27.30313        -1.26044
C         34.04722        26.61565        -0.83230
C         35.32324        28.77673        -1.10589
C         34.12305        29.47813        -1.06879
C         35.35024        31.59344        -0.75139
C         34.10625        30.90090        -0.94464
C         35.31749        33.02322        -0.54825
C         34.12670        33.74595        -0.53332
C         35.38606        35.92045        -0.34720
C         34.12508        35.20040        -0.39985
C         35.37050        37.37224        -0.44015
C         34.11644        38.07002        -0.41976
C         35.31983        40.22941        -0.62893
C         34.10440        39.50682        -0.43272
C         35.30553        41.63332        -0.51401
C         34.11162        42.36703        -0.30344
C         35.32590        44.52746        -0.04674
C         34.11161        43.81164        -0.16891
C         35.35405        45.92799         0.15116
C         34.12518        46.65778         0.20004
C         35.37926        48.77276         0.56126
C         34.13309        48.07107         0.41180
C         35.41632        50.18142         0.68748
C         34.18218        50.91267         0.72057
C         35.46752        53.12545         0.59666
C         34.18906        52.33257         0.79397
C         35.57611        54.35483         1.47650
C         37.58852        18.76678        -1.28347
C         36.33952        18.13495        -1.40071
C         37.73545        20.09795        -0.86755
C         36.53251        20.85743        -0.68608
C         37.79215        22.98054        -0.80689
C         36.56546        22.29690        -0.58335
C         37.81469        24.38438        -0.94403
C         36.58320        25.10216        -0.86673
C         37.84527        27.29575        -1.23061
C         36.57374        26.53706        -1.24735
C         37.78703        28.72430        -1.20991
C         36.57770        29.45573        -1.03932
C         37.85071        31.55249        -0.58490
C         36.58180        30.87718        -0.79319
C         37.85740        32.96470        -0.11562
C         36.56443        33.73075        -0.18937
C         37.86348        35.89678        -0.10561
C         36.57701        35.20708        -0.23830
C         37.84757        37.42516        -0.34161
C         36.56697        38.09987        -0.57794
C         37.78301        40.17939        -1.16609
C         36.58152        39.51865        -0.80807
C         37.76403        41.68757        -1.16206
C         36.60904        42.31705        -0.41476
C         37.83775        44.56980        -0.23477
C         36.59530        43.78639        -0.11218
C         37.85977        45.92817         0.27363
C         36.59987        46.62859         0.39497
C         37.81532        48.71185         1.03214
C         36.58896        48.01254         0.62258
C         37.89919        50.17626         0.94981
C         36.68642        50.89431         0.78752
C         37.96585        52.97988         0.89558
C         36.73597        52.30713         0.75129
C         37.95763        54.50380         0.82011
C         36.74506        54.99719         1.59019
C         40.32440        15.94054         0.83563
C         39.42718        16.37471        -0.13596
C         40.32473        18.67388         0.01415
C         39.47447        17.70634        -0.56650
C         40.20999        20.10926        -0.23693
C         39.04096        20.73160        -0.64057
C         40.34078        22.94864        -0.99598
C         39.03783        22.19322        -0.95447
C         40.28446        24.42629        -1.06384
C         39.07106        25.11417        -1.13830
C         40.31189        27.27516        -1.54123
C         39.03963        26.55772        -1.29155
C         40.31731        28.77147        -1.45313
C         39.03081        29.50595        -1.29966
C         40.33239        31.60200        -0.83740
C         39.04895        30.90017        -0.80788
C         40.35011        33.02052        -0.69460
C         39.20095        33.70739        -0.01121
C         40.29688        35.88273        -0.62046
C         39.12632        35.18142        -0.36266
C         40.28120        37.31283        -0.88283
C         39.06634        38.04500        -0.85623
C         40.21646        39.89940        -1.83851
C         38.98950        39.38356        -1.33990
C         40.27046        42.09466        -1.72240
C         38.95402        42.63225        -1.34067
C         40.27381        44.50284        -0.23024
C         38.97852        43.93084        -0.62779
C         40.32903        45.93428         0.12510
C         39.08300        46.58002         0.44614
C         40.38301        48.70672         0.91332
C         39.12812        47.94469         0.97494
C         40.41775        50.08796         1.06318
C         39.15010        50.83742         1.07304
C         40.42175        52.97084         1.37623
C         39.15947        52.25491         1.08498
C         40.46074        54.43915         1.29589
C         39.26113        55.17348         1.21915
C         40.53152        57.22266         1.53664
C         39.31403        56.56965         1.33883
C         42.44491        16.27563         2.05382
C         41.35246        16.80298         1.25501
C         42.57486        18.94857         1.03001
C         41.37575        18.15796         0.82777
C         42.62726        20.27772         0.65983
C         41.32632        20.99402         0.33643
C         42.71389        22.99810        -0.21894
C         41.54304        22.29543        -0.41006
C         42.85064        24.37286        -0.77536
C         41.59329        25.08463        -1.21841
C         42.86392        27.31429        -1.08914
C         41.62252        26.56506        -1.41146
C         42.84321        28.71117        -1.09009
C         41.53367        29.42384        -0.83672
C         42.76051        31.61176        -1.53427
C         41.51915        30.90205        -1.08323
C         42.76807        33.04271        -1.06579
C         41.57977        33.73637        -0.78018
C         42.76032        35.91634        -0.88361
C         41.57363        35.19014        -0.70532
C         42.77757        37.32624        -1.11407
C         41.50392        37.99271        -1.15216
C         42.70830        40.15803        -1.33223
C         41.46473        39.35141        -1.54141
C         42.70515        41.64692        -1.14178
C         41.46408        42.46984        -1.20949
C         42.79231        44.49756        -0.61734
C         41.52308        43.73593        -0.44635
C         42.79914        45.92473        -0.17989
C         41.54694        46.54616         0.31490
C         42.93952        48.63389         0.83427
C         41.61474        47.91066         0.86819
C         42.90953        50.10476         0.78762
C         41.69528        50.77359         0.99760
C         42.97673        52.99102         1.02413
C         41.74447        52.21941         1.28977
C         42.95555        54.35806         1.15622
C         41.71464        55.09404         1.38409
C         43.01523        57.19800         1.59611
C         41.73908        56.50686         1.51740
C         43.63090        16.91697         2.10576
C         45.10699        18.96914         1.47470
C         43.80173        18.19970         1.39311
C         45.06163        20.43452         1.29845
C         43.84826        21.05452         0.82103
C         44.99408        23.27241         0.79577
C         43.84373        22.41811         0.46863
C         45.13993        24.61351         0.19097
C         44.04269        25.20077        -0.44604
C         45.25178        27.34228        -0.50863
C         44.05731        26.60050        -0.74154
C         45.27561        28.74757        -0.75507
C         44.05583        29.46194        -1.01358
C         45.26186        31.59617        -1.19840
C         44.04240        30.87959        -1.17088
C         45.30092        33.00838        -1.17293
C         44.04212        33.69978        -0.87433
C         45.29010        35.93777        -1.14523
C         44.05277        35.23499        -0.77543
C         45.26044        37.33175        -1.38360
C         43.99431        38.03074        -1.35705
C         45.20913        40.18325        -1.54523
C         44.01055        39.45718        -1.48536
C         45.22020        41.62698        -1.31615
C         44.00576        42.37112        -1.08717
C         45.26915        44.40807        -0.43550
C         44.04914        43.72455        -0.73981
C         45.29178        45.76502        -0.04643
C         44.10886        46.55204         0.09097
C         45.38605        48.63276         0.46874
C         44.15630        47.91306         0.41317
C         45.36637        50.07732         0.58752
C         44.15669        50.78682         0.63745
C         45.51531        52.93365         0.73546
C         44.17729        52.27593         0.41080
C         45.49737        54.41223         0.66297
C         44.18510        55.15449         0.87717
C         44.17481        56.57267         1.30106
C         47.39461        19.14283         2.35126
C         46.27179        18.40697         2.17535
C         47.46171        20.52647         1.94008
C         46.24402        21.15806         1.52489
C         47.54463        23.31948         1.24062
C         46.25318        22.62012         1.36763
C         47.57042        24.67651         0.82187
C         46.37622        25.32089         0.34201
C         47.67954        27.39131        -0.00231
C         46.43773        26.68050        -0.06561
C         47.70762        28.79136        -0.33210
C         46.51222        29.44006        -0.68823
C         47.78260        31.64311        -0.88230
C         46.52651        30.84697        -1.12068
C         47.73248        33.10602        -0.91740
C         46.51332        33.76074        -1.10694
C         47.71582        35.92736        -1.36010
C         46.50506        35.22155        -1.17270
C         47.70567        37.31062        -1.61056
C         46.48123        38.03388        -1.60871
C         47.67818        40.19220        -1.78660
C         46.48035        39.48446        -1.67665
C         47.67153        41.65945        -1.65480
C         46.43028        42.30507        -1.21173
C         47.85855        44.30972        -0.32966
C         46.50074        43.61064        -0.53318
C         47.89270        45.73943         0.11396
C         46.55636        46.44400         0.30142
C         47.84469        48.56030         0.52791
C         46.58962        47.91002         0.35635
C         47.72496        49.91529         1.00034
C         46.62835        50.74884         0.79931
C         47.99046        52.95403         0.75282
C         46.70444        52.22194         0.85911
C         47.93445        54.40244         0.81648
C         46.78102        55.10398         0.83873
C         49.90848        20.63036         2.37061
C         48.68177        21.25609         1.98622
C         49.98369        23.35615         1.61109
C         48.73413        22.64175         1.58887
C         50.02681        24.71902         1.22652
C         48.82051        25.37876         0.79855
C         50.19387        27.41670         0.16979
C         48.86416        26.73055         0.38320
C         50.10872        28.91897         0.28557
C         48.92924        29.53424        -0.09080
C         50.07272        31.83582         0.23956
C         48.85158        31.00469        -0.08176
C         50.09256        33.22541        -0.27352
C         48.96509        33.82201        -0.78711
C         50.23017        35.99855        -1.10524
C         49.01829        35.16822        -1.45979
C         50.24667        37.31703        -1.53903
C         48.98868        37.98557        -1.93717
C         50.23829        40.27046        -1.82038
C         48.97284        39.52959        -2.05142
C         50.24365        41.63499        -1.56718
C         48.98285        42.40673        -1.55959
C         50.22424        44.50155        -1.03533
C         49.04201        43.76479        -0.98262
C         50.25266        45.89217        -0.64551
C         49.10078        46.55869        -0.14474
C         50.43966        48.70334         0.17520
C         49.09105        47.94212         0.18030
C         50.35439        50.20471        -0.11583
C         49.53699        50.99362         0.62550
C         50.31632        53.09266        -0.25497
C         49.23372        52.39011         0.41653
C         51.09642        21.31390         2.40128
C         52.39408        23.43098         2.18591
C         51.18229        22.69923         2.05296
C         52.42488        24.82992         1.87643
C         51.25924        25.45920         1.33647
C         52.49986        27.57738         1.15032
C         51.32522        26.82312         0.96324
C         52.52644        28.99196         0.83411
C         51.31684        29.67739         0.52706
C         52.55866        31.79775         0.42327
C         51.33826        31.09952         0.42875
C         52.58464        33.27422         0.32169
C         51.31643        34.01202        -0.06479
C         52.65826        36.03480        -0.60248
C         51.41686        35.36309        -0.63585
C         52.73189        37.40092        -1.04164
C         51.53213        38.00960        -1.64155
C         52.74078        40.27362        -1.44156
C         51.52684        39.56029        -1.84855
C         52.70841        41.68938        -1.41552
C         51.46302        42.38468        -1.47133
C         52.65307        44.53509        -1.60194
C         51.45396        43.80874        -1.40442
C         52.54737        45.98701        -1.56477
C         51.44556        46.65065        -0.92114
C         52.63629        48.79850        -1.09420
C         51.48754        48.04214        -0.70890
C         52.64897        50.23068        -1.05869
C         51.27848        50.89595        -1.08768
C         51.28793        52.39898        -0.89721
C         54.72220        23.52316         2.94784
C         53.60742        22.80551         2.65375
C         54.74557        24.97819         2.78330
C         53.60515        25.60237         2.09470
C         54.92044        27.68935         1.71629
C         53.66732        26.96080         1.70620
C         54.96732        29.03892         1.23586
C         53.75248        29.71009         0.88791
C         55.03178        31.82137         0.53702
C         53.78282        31.10858         0.59480
C         55.06541        33.22515         0.23196
C         53.86344        33.95582         0.06873
C         55.12383        36.02853        -0.32527
C         53.87235        35.33141        -0.26666
C         55.13091        37.45609        -0.49635
C         53.91472        38.13687        -0.89150
C         55.09150        40.32365        -0.78140
C         53.93039        39.57599        -1.09218
C         55.12582        41.72490        -0.97730
C         53.92422        42.42607        -1.32393
C         55.20357        44.47222        -1.59781
C         53.91740        43.82986        -1.58229
C         55.40539        45.76566        -2.13985
C         53.55735        46.80460        -2.06964
C         55.04676        48.81037        -1.78871
C         53.77514        48.14465        -1.66748
C         55.05094        50.17287        -1.51751
C         53.84926        50.88690        -1.27095
C         57.38044        25.03692         2.90983
C         56.10957        25.75374         2.76719
C         57.38148        27.69028         1.84449
C         56.12572        27.05597         2.08712
C         57.42574        29.04795         1.40352
C         56.20625        29.73768         1.14474
C         57.49908        31.80634         0.64080
C         56.23996        31.12242         0.76543
C         57.52336        33.18585         0.27953
C         56.32367        33.90192         0.11126
C         57.56832        36.05790        -0.03744
C         56.33647        35.33073        -0.11627
C         57.54550        37.49087        -0.04713
C         56.31890        38.17280        -0.28203
C         57.55766        40.38388        -0.19191
C         56.23910        39.66218        -0.06364
C         57.55507        41.79449        -0.37075
C         56.33744        42.45957        -0.75310
C         57.55324        44.62160        -0.85800
C         56.36341        43.84205        -1.05518
C         57.54686        46.02990        -1.11848
C         56.43240        46.62284        -1.78907
C         57.60306        48.81929        -1.77868
C         56.36218        48.08450        -2.23133
C         58.55393        25.62482         2.55361
C         59.83017        27.63885         1.86056
C         58.59839        26.98324         2.07911
C         59.87456        28.96927         1.48085
C         58.68511        29.71888         1.26450
C         59.94634        31.86278         0.92500
C         58.71263        31.10773         0.91583
C         60.00877        33.15957         0.54220
C         58.83118        33.85729        -0.08140
C         59.96737        36.10225         0.29170
C         58.80393        35.36374         0.11242
C         59.94697        37.50854         0.31907
C         58.76617        38.22622         0.13302
C         59.95331        40.45259         0.15718
C         58.75927        39.69471         0.04803
C         59.94679        41.83438         0.05872
C         58.75802        42.54615        -0.22232
C         59.85800        44.80994        -0.09107
C         58.73977        43.99425        -0.37854
C         59.82567        46.19112        -0.28626
C         58.68785        46.81948        -0.82009
C         58.64618        48.23473        -1.14850
O         26.47730        44.07945         2.40427
O         55.24134        25.71022         3.94716
O         49.02437        31.59168         1.24634
O         39.76182        22.37219        -2.23161
O         38.70488        18.03188        -1.69540
O         51.74903        38.63060        -2.94916
O         35.83807        26.77733        -2.52010
O         47.31633        45.88798         1.43949
O         48.83134        50.40936         1.69609
O         44.15942        34.41697         0.41983
O         40.20295        41.04442        -2.63776
O         45.28904        23.30591         2.24398
O         30.24377        45.39343        -1.37626
O         41.10917        52.49877         2.58804
O         26.27423        37.31837         2.32139
O         44.76247        18.17146         0.27199
O         41.05854        26.86752        -2.74238
O         25.79627        31.39756        -2.13546
O         33.63549        25.20938         1.08200
O         38.41221        48.13650         2.24287
O         42.61987        40.74365         0.04333
O         51.76834        33.94800         1.34302
O         42.48254        24.42016        -2.19207
O         47.29919        43.44449         0.70883
O         44.71388        54.95963        -0.49374
O         42.42331        48.05672         2.09475
O         47.51862        31.05368        -2.19786
O         32.16286        29.01886        -2.49357
O         37.95037        36.85152         1.00310
O         29.70850        33.66092        -2.26576
O         37.08203        33.17711         1.11353
O         48.25565        42.36159        -2.84828
O         37.95638        42.44711        -2.40404
O         48.98465        38.65496        -3.23076
O         36.82218        42.76371         0.96324
O         39.76015        29.40903        -2.62207
O         54.42490        46.25020        -3.02381
O         40.93167        43.69578         0.88046
O         42.66623        45.55665        -1.63104
O         29.51870        38.63781         1.78888
O         49.19633        34.85103        -2.88366
H         49.20858        35.69692        -3.38197
O         50.54801        27.14859        -1.24335
H         49.82389        27.50990        -1.79876
O         26.56216        26.89108         1.38567
H         25.80368        26.36233         1.71634
O         50.77581        50.65539        -2.44366
H         51.38833        51.09085        -3.07294
O         55.88745        39.80071         1.37425
H         56.60789        39.37884         1.89006
O         39.57145        33.67876         1.40379
H         38.73254        33.79785         1.90985
O         30.57254        36.24622        -2.08826
H         30.35514        35.40633        -2.56486
O         50.95536        48.56649         1.53620
H         50.30572        49.01084         2.12811
O         44.00637        52.42267        -1.04252
H         44.15332        53.38325        -1.24166
O         37.79332        54.87625        -0.57616
H         36.90424        54.54625        -0.86794
O         35.40400        53.60260        -0.79655
H         35.32919        52.81490        -1.37589
O         58.98389        33.67546        -1.53981
H         58.98067        32.71009        -1.71334
O         40.77804        21.42057         1.64676
H         41.51027        21.83745         2.15031
O         27.55406        41.41453        -1.29774
H         26.69827        40.93786        -1.34625
O         41.31921        29.23985         0.61446
H         41.98717        29.77800         1.09104
O         25.25551        28.68332        -2.56010
H         25.31238        29.61846        -2.87544
O         31.42065        34.94754         1.24172
H         32.24438        34.57536         1.62229
O         32.87312        22.85031         1.72524
H         33.39953        23.60112         2.08881
O         56.35923        48.12246        -3.68296
H         55.61375        47.55091        -3.97914
O         42.70427        31.65049        -3.01777
H         42.35924        30.78609        -3.33018
H         21.97389        26.77378        -0.56020
H         21.91971        29.22953        -0.48762
H         22.01443        31.08103         0.17050
H         22.09171        33.46854         0.54720
H         22.10139        35.40134         0.49029
H         22.15693        37.79732         0.81737
H         22.22643        39.57170         1.57107
H         22.21798        41.98071         1.77444
H         22.11611        43.87812         1.25005
H         22.10202        46.31685         1.09867
H         25.32989        23.41919        -0.14508
H         23.22682        24.67658        -0.17130
H         25.39949        49.78193         0.90427
H         23.29768        48.50235         0.94510
H         26.97986        22.48504        -0.37909
H         27.07632        50.74151         1.20050
H         29.07459        21.29391        -0.33262
H         29.18411        51.94790         1.16307
H         32.76821        19.16871        -0.37087
H         30.68118        20.35927        -0.31313
H         32.96189        54.11079         0.88301
H         30.82798        52.91455         0.95647
H         34.22653        18.32592        -1.14780
H         34.68549        54.70692         2.01838
H         36.28854        17.09464        -1.74595
H         36.82885        55.89506         2.22139
H         40.30977        14.89852         1.18420
H         38.70792        15.68282        -0.59247
H         40.55558        58.31665         1.64430
H         38.38842        57.15839         1.27465
H         42.31245        15.29776         2.53971
H         43.01273        58.26691         1.85646
H         44.48327        16.46910         2.63435
H         45.11725        57.13718         1.30215
H         48.26791        18.67207         2.82115
H         46.26382        17.34534         2.45688
H         48.88502        54.94903         0.89306
H         46.80399        56.20016         0.89772
H         49.91475        19.56970         2.65288
H         50.32738        54.19216        -0.28950
H         51.99825        20.77248         2.71519
H         52.05320        52.96378        -1.45216
H         55.59978        23.01999         3.37621
H         53.62668        21.72009         2.81864
H         55.98366        50.75031        -1.56743
H         53.89591        51.98516        -1.23978
H         57.38012        24.03429         3.35882
H         57.69338        49.87764        -2.06456
H         59.50365        25.08592         2.68597
H         60.76627        27.08477         2.02123
H         60.85499        29.44310         1.33988
H         60.86069        31.37833         1.29577
H         60.98058        33.67223         0.56735
H         60.93864        35.60114         0.39860
H         60.90147        38.03310         0.45866
H         60.91071        39.94749         0.34166
H         60.89662        42.37473         0.17129
H         60.77752        44.35771         0.30531
H         60.71532        46.79283        -0.05000
H         59.53305        48.83854        -0.90020
