         661
 CSIRO Nanostructure Databank - Neutral Graphene Oxide Data Set
C          5.98408        31.44986         0.47394
C          6.00186        32.77190         0.74160
C          8.42623        27.25275        -0.32190
C          8.40095        28.60834        -0.28838
C          7.25218        29.36663         0.16348
C          8.26550        31.53023        -0.57872
C          7.18127        30.72513         0.05589
C          8.24036        33.00962        -0.34899
C          7.31143        33.51535         0.75733
C          8.29385        35.80852         0.64236
C          7.19062        35.01725         0.83910
C          8.34688        37.22224         0.93700
C         10.86684        22.99095        -0.14678
C         10.88245        24.40624        -0.31043
C          9.67619        25.09696        -0.47585
C         10.90340        27.28732        -0.67756
C          9.61161        26.52913        -0.90684
C         10.89540        28.64956        -0.68410
C          9.58373        29.34755        -0.81357
C         10.90075        31.57295        -1.12040
C          9.53994        30.82888        -0.99283
C         10.81830        33.05910        -0.70449
C          9.51388        33.78752        -0.51136
C         10.80718        35.89492         0.23184
C          9.49790        35.21422         0.00218
C         10.81846        37.15624         1.01423
C          9.55004        37.92711         1.05918
C         10.86649        40.03038         1.29949
C          9.63897        39.32973         1.25275
C         10.88977        41.46899         1.27006
C         13.29329        18.71516        -0.47647
C         13.28210        20.10716        -0.21347
C         12.07877        20.83627        -0.07554
C         13.29634        22.98872         0.04926
C         12.06617        22.26404        -0.05873
C         13.33263        24.40490        -0.05652
C         12.14092        25.10358        -0.31976
C         13.41391        27.29681        -0.41543
C         12.19226        26.52011        -0.83796
C         13.37483        28.70363        -0.38500
C         12.12246        29.43097        -0.53971
C         13.32866        31.56895        -0.34183
C         12.09712        30.81821        -0.53991
C         13.31723        32.94635        -0.22954
C         12.01417        33.65640         0.02938
C         13.26619        35.85835         0.07806
C         12.07395        35.16694         0.03647
C         13.33795        37.23384         0.47664
C         12.14470        37.88050         1.05089
C         13.35777        40.00997         1.21599
C         12.12061        39.33676         1.19938
C         13.35713        41.45991         1.65646
C         12.07573        42.19265         1.31185
C         13.29528        44.35974         1.10106
C         12.11152        43.60416         1.13547
C         13.28701        45.75256         0.87929
C         15.62716        14.50248        -1.79655
C         15.24222        15.89148        -1.82099
C         14.40646        16.59290        -0.98973
C         15.70234        18.77941        -0.95990
C         14.46006        18.04266        -0.86813
C         15.72419        20.13573        -0.48502
C         14.54312        20.79007        -0.14176
C         15.81824        22.98007         0.38006
C         14.52421        22.21573         0.27103
C         15.79027        24.44115         0.18962
C         14.60898        25.12630         0.00394
C         15.85164        27.27165        -0.07543
C         14.63549        26.57917        -0.17502
C         15.89612        28.71416        -0.48985
C         14.59645        29.45172        -0.28464
C         15.84571        31.57817        -0.22960
C         14.59273        30.84300        -0.26893
C         15.84815        32.98213        -0.23550
C         14.57008        33.72735         0.08884
C         15.74071        35.96038        -0.48753
C         14.45077        35.14150        -0.53198
C         15.76985        37.33201         0.01990
C         14.55575        37.95656         0.48903
C         15.89028        39.94466         1.31140
C         14.55665        39.31667         0.96340
C         15.83626        41.48013         1.34650
C         14.58310        42.19305         1.18727
C         15.80204        44.37337         0.81829
C         14.60457        43.68741         1.44591
C         15.68460        45.75000         0.27986
C         14.43407        46.53421         0.56194
C         15.28657        48.88266         0.06618
C         14.33174        47.94263         0.58173
C         15.60532        50.18465         0.43327
C         18.04066        10.73964        -0.79306
C         18.15513        11.95208        -1.51044
C         16.96488        12.51268        -2.23369
C         18.13283        14.77596        -2.23906
C         16.88227        14.02054        -2.10277
C         18.19176        16.16972        -2.25208
C         17.02927        17.02295        -2.16089
C         18.21883        18.68810        -0.82949
C         16.94473        18.15213        -1.35547
C         18.25482        20.12417        -0.44130
C         17.00197        20.94815        -0.63113
C         18.29199        22.85047         0.44093
C         17.08192        22.25368         0.13476
C         18.34192        24.35713         0.53735
C         17.09765        25.13377         0.18692
C         18.27879        27.31491         0.40056
C         17.08261        26.61918         0.23260
C         18.33086        28.75219         0.33005
C         17.11010        29.47399        -0.01889
C         18.42166        31.57174        -0.06105
C         17.09000        30.84811        -0.10509
C         18.30055        33.06904         0.08362
C         17.07472        33.71256        -0.21816
C         18.30873        35.91367        -0.16982
C         17.08946        35.16531        -0.42442
C         18.27420        37.38586        -0.52640
C         17.00113        38.06445         0.01515
C         18.21617        40.20783         0.24366
C         17.02186        39.38696         0.44833
C         18.31288        41.57323         0.74978
C         17.08677        42.27891         1.16131
C         18.27571        44.38669         0.54272
C         17.00739        43.71128         0.76805
C         18.29277        45.77471         0.33966
C         17.03371        46.42863        -0.03505
C         18.17429        48.68011         0.02895
C         17.10298        47.86357        -0.26721
C         18.07280        50.08794        -0.11976
C         16.85327        50.82408         0.03803
C         18.11524        52.95585        -0.35293
C         16.93087        52.23574        -0.05397
C         18.11975        54.36326        -0.34759
C         20.14820         7.07847         1.80034
C         20.16074         8.39530         1.28472
C         19.03273         8.97825         0.67546
C         20.44844        10.74542        -0.33166
C         19.11539        10.16721        -0.09028
C         20.56875        12.02191        -1.12851
C         19.35202        12.68029        -1.60174
C         20.67143        14.67085        -2.20499
C         19.41499        14.05163        -2.06305
C         20.75748        16.14011        -2.65995
C         19.49565        16.88239        -2.20351
C         20.78988        18.68550        -0.82855
C         19.50563        18.14145        -1.38123
C         20.76488        20.04543        -0.15161
C         19.56522        20.88154        -0.60730
C         20.72029        22.44411         0.88334
C         19.52286        22.11629         0.25942
C         20.68933        24.56230         1.41525
C         19.52574        25.13805         0.98093
C         20.75459        27.33398         1.03289
C         19.41764        26.64111         1.12518
C         20.75862        28.74014         0.93129
C         19.49561        29.43577         0.68000
C         20.68573        31.66169         1.08165
C         19.35389        30.92502         0.96882
C         20.68370        33.14698         0.83463
C         19.45658        33.81121         0.35588
C         20.75851        35.91564         0.10293
C         19.47082        35.24042         0.18564
C         20.75671        37.36352        -0.02444
C         19.55590        38.05738        -0.10013
C         20.78659        40.20943         0.33075
C         19.56313        39.50920        -0.06822
C         20.75840        41.55853         0.64097
C         19.50831        42.26601         0.73285
C         20.71435        44.44109         0.82514
C         19.50678        43.71793         0.78025
C         20.70013        45.84474         0.67072
C         19.48757        46.52738         0.44290
C         20.68067        48.85912         0.67003
C         19.35950        48.01470         0.76806
C         20.62668        50.00762        -0.33836
C         19.32989        50.76985        -0.48982
C         20.56079        52.93542        -0.66917
C         19.37712        52.24571        -0.57225
C         20.58830        54.42592        -0.88736
C         19.30266        55.12619        -0.51475
C         20.51908        57.28077        -0.39324
C         19.30250        56.51247        -0.45121
C         20.52537        58.64767        -0.43695
C         22.51731         4.52635         3.19220
C         21.32365         5.14190         2.76937
C         22.64946         7.08508         1.87799
C         21.32480         6.43006         2.21326
C         22.61695         8.59503         2.10880
C         21.38844         9.21374         1.46073
C         22.86839        11.06695         0.41444
C         21.53961        10.45592         0.63496
C         22.96787        12.24536        -0.41185
C         21.82007        12.78042        -1.05869
C         23.19421        14.35733        -2.22247
C         21.88530        13.94872        -1.85097
C         23.27316        16.47870        -2.58107
C         22.02426        16.93467        -2.26172
C         23.22552        19.09055        -1.60647
C         22.04167        18.15024        -1.40069
C         23.25917        20.29565        -0.69272
C         22.06034        20.84671        -0.25789
C         23.26497        22.87509         0.80991
C         22.01216        22.09097         0.41322
C         23.16088        24.44948         0.91077
C         22.01342        25.14151         1.25388
C         23.26393        27.32026         1.57544
C         21.93606        26.59920         1.65880
C         23.26085        28.79902         1.30569
C         21.98142        29.46332         1.00159
C         23.27028        31.64643         0.75607
C         21.99365        30.93459         1.04983
C         23.27682        33.04817         0.47653
C         22.02190        33.83322         0.57915
C         23.17805        35.89536        -0.34415
C         21.94228        35.21430         0.07299
C         23.22885        37.35909        -0.19393
C         22.00818        38.06494        -0.00501
C         23.23190        40.17417         0.24943
C         22.02626        39.48099         0.23355
C         23.29512        41.53837         0.78970
C         21.98749        42.24369         1.07583
C         23.26760        44.46489         1.25444
C         21.91711        43.73015         1.42575
C         23.25175        45.94677         0.97591
C         21.99440        46.56197         0.38207
C         23.14355        48.76032         0.34159
C         21.96517        48.06522         0.48061
C         23.16050        50.16141         0.01135
C         21.91710        50.75541        -0.49714
C         23.11038        53.00222        -0.42538
C         21.87665        52.25805        -0.71814
C         23.05324        54.43393        -0.29672
C         21.83068        55.09610        -0.34419
C         23.06862        57.26086        -0.35895
C         21.78591        56.55260         0.01611
C         22.97210        58.67782        -0.84969
C         21.80210        59.41528        -0.18738
C         22.91902        61.49538        -1.00039
C         21.76173        60.84804        -0.64090
C         23.74546         5.17625         3.12008
C         25.04238         7.19442         2.55018
C         23.85378         6.48071         2.57064
C         25.12780         8.52147         1.99907
C         23.93397         9.21203         1.65587
C         25.29702        11.16795         0.94719
C         23.99300        10.47006         1.00553
C         25.39907        12.45770         0.16632
C         24.21559        12.91327        -0.57702
C         25.64826        14.64581        -1.71586
C         24.34266        13.94831        -1.52519
C         25.72834        16.16748        -1.98155
C         24.52000        17.02318        -2.07550
C         25.73261        19.08014        -1.40355
C         24.53487        18.34533        -1.62510
C         25.73568        20.43811        -0.99225
C         24.47578        21.07111        -0.55305
C         25.63067        23.26511        -0.28416
C         24.46057        22.34668         0.00689
C         25.73569        24.43754         0.72703
C         24.43224        25.20670         0.92264
C         25.76574        27.29739         1.60120
C         24.48567        26.53335         1.28194
C         25.73901        28.77682         1.12397
C         24.54077        29.49397         0.99432
C         25.75346        31.70473         0.88052
C         24.47577        30.91392         0.76830
C         25.73050        33.06950         0.22057
C         24.49150        33.71231         0.09954
C         25.72156        35.91739        -0.34186
C         24.47126        35.12987        -0.36745
C         25.71021        37.30755        -0.35279
C         24.45790        38.02178        -0.25891
C         25.74065        40.23751        -0.09957
C         24.44425        39.49233        -0.21074
C         25.71689        41.62430         0.43601
C         24.55925        42.31085         0.71543
C         25.67346        44.50645         0.64646
C         24.53519        43.76023         0.92181
C         25.70291        45.95967         0.49764
C         24.49852        46.64046         0.59645
C         25.68477        48.82423         0.19291
C         24.46737        48.13053         0.72600
C         25.63592        50.20621        -0.00018
C         24.35404        50.88447        -0.08316
C         25.56718        53.04976        -0.27394
C         24.32628        52.31520        -0.28086
C         25.52826        54.48187        -0.27292
C         24.30452        55.16145        -0.17452
C         25.55158        57.38695        -0.08713
C         24.26498        56.60809        -0.25485
C         25.47697        58.79032        -0.62739
C         24.27577        59.44712        -0.78750
C         24.17863        60.84664        -1.01413
C         26.40040         9.10651         1.74454
C         27.77313        10.98280         0.90549
C         26.52956        10.39299         1.20740
C         27.90432        12.21555         0.22400
C         26.73210        12.93558        -0.27271
C         28.18902        14.63228        -1.45125
C         26.84289        14.03388        -1.08150
C         28.16073        16.16249        -1.37250
C         26.99129        16.85255        -1.57931
C         28.29414        19.06973        -1.55798
C         26.99298        18.33668        -1.66971
C         28.26660        20.59293        -1.39078
C         26.95823        21.16252        -0.84023
C         28.19143        23.19937        -0.25594
C         26.95698        22.51099        -0.42333
C         28.22670        24.65013        -0.03023
C         26.90301        25.36923         0.37442
C         28.29804        27.33773         1.29619
C         26.99171        26.64599         1.02913
C         28.22983        28.82148         1.03049
C         27.01218        29.45552         0.96384
C         28.22872        31.64061         0.32888
C         26.96652        30.88373         0.52380
C         28.19791        33.11167         0.11743
C         26.97187        33.74913        -0.03522
C         28.24498        35.91291        -0.43096
C         26.96781        35.13812        -0.65203
C         28.21985        37.34117        -0.35105
C         26.97586        38.05459        -0.31014
C         28.21319        40.13892         0.11702
C         26.98975        39.44695        -0.10578
C         28.22615        41.49538         0.55361
C         27.00764        42.32871         0.39239
C         28.17922        44.65109         0.55576
C         26.95974        43.81828         0.44320
C         28.16342        45.91766        -0.24531
C         26.90733        46.68309         0.13202
C         28.11533        48.83121        -0.22464
C         26.90503        48.09485         0.02586
C         28.09305        50.22653        -0.27670
C         26.84908        50.93869        -0.21774
C         28.04244        53.09319        -0.51840
C         26.80405        52.35532        -0.32658
C         27.99064        54.49529        -0.62787
C         26.77575        55.22668        -0.45911
C         26.76569        56.61067        -0.50009
C         29.17031        12.77209        -0.01393
C         30.51592        14.71369        -0.54877
C         29.31814        14.02845        -0.64448
C         30.59716        16.12051        -0.80372
C         29.41178        16.87154        -1.13320
C         30.67740        18.95131        -0.77934
C         29.47950        18.27607        -1.15652
C         30.70888        20.37674        -0.61492
C         29.49097        21.14388        -0.70119
C         30.70759        23.22532        -0.21772
C         29.43997        22.49287        -0.35395
C         30.70899        24.62506         0.23663
C         29.50367        25.33084         0.31684
C         30.74871        27.41478         0.65969
C         29.52422        26.70234         0.67896
C         30.79144        28.85242         0.76174
C         29.53809        29.56754         1.24161
C         30.75749        31.73940         0.40486
C         29.50653        31.03330         0.80370
C         30.65156        33.09136        -0.17342
C         29.44927        33.78104        -0.18399
C         30.71642        35.93103        -0.45990
C         29.45160        35.22063        -0.40594
C         30.71085        37.37083        -0.33323
C         29.45615        38.04910        -0.22495
C         30.67713        40.15633         0.22489
C         29.45234        39.44689         0.03863
C         30.69916        41.50772         0.66873
C         29.42896        42.01599         1.02457
C         30.62908        44.54003         0.28394
C         29.35894        44.19133         1.00664
C         30.64836        46.05040         0.16708
C         29.46207        46.68121        -0.07113
C         30.60959        48.88417         0.11980
C         29.43347        48.12587        -0.50219
C         30.57071        50.32791        -0.30924
C         29.34859        50.98028        -0.41368
C         29.26653        52.39330        -0.58379
C         31.80101        16.78321        -0.55859
C         33.06260        18.84726        -0.13220
C         31.85858        18.19349        -0.51252
C         33.10138        20.22208         0.03160
C         31.92301        20.97974        -0.20434
C         33.14165        23.07533         0.62439
C         31.99324        22.44598        -0.14184
C         33.19056        24.56189         0.39849
C         31.96148        25.28518         0.39574
C         33.21910        27.39397         0.40057
C         31.97683        26.70644         0.46342
C         33.24352        28.82451         0.42165
C         31.99224        29.54407         0.58613
C         33.20522        31.63742         0.07974
C         32.03417        30.99024         0.37711
C         33.20157        33.00839        -0.48006
C         31.90036        33.76445        -0.56559
C         33.21082        35.93872        -0.60350
C         31.91740        35.23677        -0.55686
C         33.22162        37.43459        -0.37423
C         31.91805        38.09167        -0.19474
C         33.10456        40.16008         0.50247
C         31.90763        39.47136         0.12321
C         33.14697        41.61066         0.63087
C         31.91685        42.29106         0.71764
C         33.17295        44.55724         0.51795
C         31.86600        43.79460         0.78869
C         33.11984        45.96923         0.09337
C         31.94024        46.74926         0.08594
C         31.91259        48.14238        -0.07454
C         34.40372        20.85891         0.48875
C         35.60528        23.04613         0.19895
C         34.44456        22.36509         0.36227
C         35.65960        24.50092         0.21594
C         34.41343        25.23300         0.31526
C         35.67677        27.35340         0.21752
C         34.43521        26.66585         0.29310
C         35.69885        28.77892         0.22178
C         34.47054        29.49592         0.31045
C         35.77028        31.61366        -0.13153
C         34.51576        30.99376         0.44914
C         35.78922        33.06560        -0.43940
C         34.49512        33.78615        -0.54150
C         35.75903        36.02544        -0.41358
C         34.45817        35.23276        -0.08388
C         35.67529        37.41181         0.22980
C         34.43309        38.04526         0.25331
C         36.08077        40.43828         0.51688
C         34.21652        39.35713         0.79684
C         35.68154        41.72382         0.08149
C         34.40892        42.34637         0.40076
C         34.34998        43.73402         0.25416
C         36.85705        25.18778         0.13048
C         38.11915        27.33203         0.06880
C         36.90300        26.62146         0.14251
C         38.15959        28.73523         0.05723
C         36.95148        29.46791         0.13381
C         38.25094        31.61624        -0.13715
C         36.94275        30.91450        -0.02979
C         38.28115        33.11223        -0.15388
C         37.01061        33.85969        -0.14655
C         38.23546        35.94678         0.24808
C         36.99196        35.21994        -0.01197
C         38.21286        37.29802         0.44959
C         36.96002        38.09365         0.73474
C         37.01462        39.49649         0.12457
C         39.49279        29.45852        -0.10309
C         40.70541        31.67226         0.36491
C         39.42130        30.87959         0.48065
C         40.72840        33.02391         0.31545
C         39.51909        33.83127         0.20841
C         39.48150        35.19131         0.33395
O         27.41146        25.38159        -1.01803
O         22.06332        51.32068        -1.83868
O         19.93009        49.92518        -1.59047
O          9.33922        29.93819        -2.13548
O         10.05236        36.11443        -1.01434
O         18.21063        19.09725         0.57454
O         25.91682        15.17793        -3.05075
O         32.50422        33.11917        -1.76762
O         27.04933        43.13082        -0.89449
O         20.84026        10.67978        -1.73282
O         23.70614        35.35735        -1.62143
O         29.38199        43.11416         1.88914
O         25.04313        40.16068        -1.40333
O         15.13005        22.49477         1.60046
O         27.75201        18.73146        -2.88670
O         35.21798        33.48436        -1.76492
O         23.37182        28.25250         2.70438
O         32.56557        44.36921         1.89051
O         21.37263        33.83381         1.91733
O         31.62229        23.08194        -1.38979
O         25.25331        12.47477         1.63222
O         21.34688        31.36814         2.35090
O         18.76851        40.12642        -1.13581
O         35.19851        39.96770         1.55930
O         16.49059        35.66711        -1.69304
O         18.02849        24.73623        -0.90159
O         30.17889        31.84643         1.81307
O         18.89552        48.01393         2.08183
O         21.62794        17.77713        -0.02671
O          7.68089        32.48057        -1.56160
O         22.69636        41.54061         2.15725
O         11.58902        37.13082         2.23072
O         23.35136        15.26031        -3.27723
O         10.19724        33.77984        -1.79793
O         20.65687        23.28727         1.98443
O         33.40763        36.85418        -1.70822
O         23.34585        45.46487         2.34150
O         38.48529        32.28756        -1.39803
O         15.87930        16.62863        -2.84819
O         16.22580        45.78070        -1.07694
O         27.54709        30.98252        -0.81455
O         16.06379        48.37412        -1.02451
O         21.08049        10.53733         2.03647
O         19.44715        18.20246        -2.84870
O         16.67443        42.01075         2.56883
O         11.23629        31.59064        -2.52643
H         10.62252        32.22766        -2.95920
O         20.70619        54.60437        -2.34986
H         21.28607        53.89004        -2.69291
O         14.58906        33.92871         1.54494
H         14.90460        33.09820         1.96215
O         39.11739        30.74300         1.89344
H         39.76810        30.10285         2.25517
O         22.06482        59.39904         1.26307
H         21.41610        59.99795         1.69000
O         16.19329        39.47512         2.65711
H         16.51048        40.25804         3.16887
O         30.35176        48.87637         1.56774
H         31.09475        49.33815         2.00987
O         32.80996        22.85604         2.03589
H         33.49396        23.30257         2.57823
O         35.51465        20.25329        -0.17570
H         35.40590        20.38629        -1.13957
O         25.68688        57.56398         1.37919
H         24.83054        57.91262         1.70950
O         22.61472        58.58183        -2.25956
H         23.34307        58.12412        -2.72867
O          9.43148        26.44404        -2.36377
H         10.31972        26.22704        -2.73673
O         25.31974        23.82458        -1.58905
H         26.09352        24.37873        -1.86021
O         20.82587        49.53685         1.93844
H         20.11931        49.10772         2.51324
O         35.88059        36.19202        -1.83844
H         35.77767        35.29858        -2.24741
O         17.03811        21.35515        -2.04932
H         16.34745        22.03587        -2.19718
O         29.69246        29.57061         2.70527
H         30.12304        30.43514         2.93248
O         17.06946        12.18151        -3.63301
H         17.92071        12.53444        -3.96628
O         19.75806        21.21305        -1.98984
H         18.89525        21.52569        -2.35430
O         14.09131        34.95269        -1.91743
H         14.91181        35.05910        -2.45416
O         20.69798        16.11817        -4.10188
H         20.54712        17.04243        -4.39853
O         21.77200        56.60639         1.49248
H         21.86690        57.56492         1.72635
O         25.93308        31.96046         2.32169
H         25.07678        32.27922         2.67974
O         19.07050        31.36200        -1.35239
H         18.50649        31.75764        -2.04984
O         18.99253        26.78948         2.53988
H         19.80775        26.62568         3.08612
O         16.04640        28.65225        -1.96664
H         16.02633        29.57516        -2.30006
O         28.52385        27.17360         2.75919
H         29.07342        27.94879         3.04956
O         23.00828        19.61920        -2.95149
H         23.72155        20.26387        -3.14508
O         11.71602        33.36513         1.44926
H         12.50231        33.66437         1.96502
O         20.59812        19.80861         1.26377
H         21.10744        18.99633         1.48381
O          8.02081        33.10953         1.98414
H          7.50496        33.43336         2.75254
O         36.92507        38.13616         2.18765
H         36.32488        38.87507         2.44658
O         28.09606        45.59187        -1.67930
H         27.49003        44.81751        -1.77688
O         13.43393        41.44444         3.12052
H         13.67086        42.36650         3.39462
O         26.90616        34.92514        -2.10707
H         25.98500        34.67542        -2.33868
O         25.85344        27.30333         3.05471
H         26.81559        27.38492         3.28321
O         24.53899        48.34971         2.18833
H         23.80033        47.85216         2.60460
O         22.51899         8.82367         3.53154
H         22.18431         9.74134         3.64781
O         23.52029        22.47785         2.19636
H         22.69851        22.66758         2.70274
O         29.61188        48.12084        -1.94312
H         29.01509        47.42990        -2.30973
O         21.60083        43.76102         2.83987
H         22.19030        43.11114         3.28415
O         18.26087        37.51018        -1.97961
H         18.33830        38.47480        -2.17284
O         21.60069        26.51271         3.09579
H         22.06552        27.28124         3.51652
O         26.09170        23.84409         1.99967
H         25.83799        24.46146         2.71809
O         14.74536        43.86344         2.90859
H         15.57924        43.37978         3.15022
O         34.64226        31.26356         1.90164
H         35.44789        30.80087         2.21896
O         28.35857        21.17033        -2.73203
H         27.99203        20.49524        -3.35278
O         22.84227         6.90961         0.44368
H         22.87689         5.94767         0.25951
O         12.31799        26.34973        -2.31489
H         12.57238        27.22317        -2.68629
O         18.70717        31.04373         2.25531
H         19.41063        30.93445         2.93547
O         34.32557        35.15494         1.35997
H         34.68883        35.97543         1.75894
O         28.47469        14.28695        -2.83520
H         27.70722        14.60933        -3.36819
O         30.46168        44.01541        -1.07031
H         29.71851        44.50477        -1.50503
O         22.21201        46.29694        -1.06007
H         21.50319        46.74892        -1.56687
O         40.54785        28.77432         0.57800
H         40.70636        27.91521         0.13779
H          5.04963        30.87621         0.57284
H          5.08537        33.29496         1.05361
H          7.56077        26.66661         0.02300
H          6.40295        28.81052         0.58930
H          6.27506        35.44727         1.27480
H          7.39932        37.74907         1.12655
H          9.90426        22.46009        -0.17097
H          8.73819        24.52071        -0.49543
H          8.70614        39.91261         1.28560
H          9.93382        42.00085         1.14112
H         12.34359        18.16137        -0.44351
H         11.11968        20.30017        -0.12326
H         11.15731        44.12156         0.94074
H         12.31099        46.26514         0.87630
H         14.85504        13.76646        -1.51623
H         13.73924        16.04993        -0.30365
H         13.42498        48.35741         1.05210
H         14.92857        50.74528         1.09567
H         17.04965        10.26439        -0.73145
H         16.02191        12.04240        -1.86137
H         16.01010        52.81823         0.10522
H         17.18167        54.89404        -0.12125
H         19.19180         6.53373         1.84071
H         18.07856         8.42917         0.69236
H         18.34282        57.04900        -0.37479
H         19.59465        59.19940        -0.64555
H         22.46698         3.52228         3.63650
H         20.36586         4.62240         2.92097
H         22.88001        62.56554        -1.25378
H         20.80571        61.39268        -0.61249
H         24.64382         4.69421         3.53335
H         25.96189         6.72921         2.93833
H         26.41057        59.37636        -0.63558
H         25.09409        61.43912        -1.15616
H         27.30653         8.52016         1.95921
H         28.69228        10.44075         1.17564
H         28.92444        55.05546        -0.78765
H         27.70537        57.15677        -0.67501
H         30.05869        12.29261         0.42547
H         31.38577        14.22148        -0.08623
H         31.50501        50.90882        -0.37090
H         30.19825        52.96569        -0.71082
H         32.70190        16.19995        -0.31832
H         33.96860        18.24993         0.04373
H         34.07669        46.45578        -0.15221
H         32.85747        48.70626        -0.12755
H         34.52318        20.61823         1.58405
H         36.54476        22.48837         0.06040
H         36.42658        42.36590        -0.41470
H         35.24204        44.25232        -0.13394
H         37.80132        24.62849         0.04910
H         39.05794        26.76045         0.00530
H         39.16267        37.81683         0.65307
H         37.61252        39.65580        -0.78343
H         39.73829        29.51851        -1.20341
H         41.64958        31.11264         0.44938
H         41.69369        33.55367         0.34281
H         40.40263        35.74761         0.56672
