         429
 CSIRO Nanostructure Databank - Neutral Graphene Oxide Data Set
C          1.21033         2.02327        -1.01483
C          1.15924         3.41866        -0.93021
C          2.41757         1.34447        -0.88682
C          2.34423         4.16131        -0.72730
C          1.27481         6.34045        -0.15005
C          1.33238         7.73887        -0.00725
C          2.34850         5.61815        -0.64244
C          2.47494         8.49663        -0.36438
C          1.88900        10.34365         1.27525
C          1.85714        11.63640         1.67283
C          2.46925         9.93166         0.00474
C          2.30608        12.75610         0.76420
C          2.01151        14.54385         2.46764
C          2.31402        15.79977         3.07384
C          2.81843        13.99038         1.49087
C          3.47950        16.45904         2.78004
C          3.79813        17.74143         3.36948
C          3.62253         2.06100        -0.65197
C          3.56960         3.47911        -0.58967
C          4.86707         1.38522        -0.49376
C          4.78110         4.26068        -0.16664
C          3.55884         6.33356        -1.18630
C          3.58961         7.82370        -0.91752
C          4.83285         5.65295        -0.73794
C          4.85472         8.47804        -1.17093
C          3.09518        10.90769        -0.74993
C          3.27411        12.26375        -0.28265
C          4.91762         9.85314        -1.52801
C          4.30789        13.07650        -0.72117
C          4.03788        14.64880         1.09960
C          4.54990        15.77474         1.96245
C          4.82024        14.21161         0.02584
C          5.44854        16.72025         1.20325
C          4.76547        18.52747         2.85525
C          5.47574        18.18275         1.57479
C          6.08968         2.08438        -0.33835
C          6.08560         3.51692        -0.30336
C          7.32431         1.39257        -0.27251
C          7.29276         4.24160        -0.22568
C          6.03584         6.34472        -0.68439
C          6.07318         7.77006        -0.97737
C          7.25937         5.65526        -0.36802
C          7.31133         8.48162        -0.95516
C          6.10790        10.58849        -1.48234
C          6.12490        12.03596        -1.56653
C          7.31544         9.89585        -1.16241
C          7.20001        12.79447        -1.19194
C          6.11610        14.86682        -0.27167
C          6.32855        16.23249         0.26586
C          7.16454        14.23210        -0.91794
C          7.53387        17.00893        -0.09679
C          6.87123        18.71559         1.55017
C          7.83702        18.22853         0.70283
C          8.56569         2.06997        -0.15181
C          8.56644         3.53373        -0.11896
C          9.76499         1.35056        -0.11881
C          9.76262         4.22408        -0.08191
C          8.49139         6.42910        -0.18060
C          8.53018         7.83600        -0.60901
C          9.79867         5.69330         0.04664
C          9.76503         8.52317        -0.68326
C          8.52885        10.61908        -1.04863
C          8.46409        12.09361        -0.89801
C          9.73729         9.93022        -0.92837
C          9.72509        12.89562        -0.85300
C          8.38639        14.99645        -1.39442
C          8.47509        16.42304        -0.93524
C          9.72703        14.33906        -1.12002
C          9.69160        17.09610        -1.32999
C          9.13970        18.86353         0.84022
C         10.10005        18.90712        -0.17274
C         11.06354         2.00465        -0.00656
C         11.06050         3.51728        -0.02371
C         12.33404         1.29505        -0.27478
C         12.22306         4.20340        -0.68489
C         11.14006         6.44077         0.00793
C         11.03043         7.84789        -0.55168
C         12.30087         5.67954        -0.61000
C         12.24241         8.52923        -0.75747
C         11.00026        10.66436        -1.10611
C         10.98422        12.15304        -1.12757
C         12.27526         9.95363        -0.91627
C         12.22924        12.91703        -0.84804
C         10.95077        15.03519        -1.22467
C         10.96621        16.49954        -1.39700
C         12.18480        14.35449        -1.14117
C         12.21602        17.23263        -1.39164
C         11.45754        19.18313        -0.19143
C         12.24867        18.77065        -1.43969
C         13.49965         1.96493        -0.57159
C         13.44760         3.38617        -1.01565
C         14.78317         1.33596        -0.46938
C         14.73320         4.11705        -1.32422
C         13.46599         6.35054        -0.87915
C         13.49436         7.81296        -0.81830
C         14.70569         5.61967        -1.28354
C         14.68221         8.52956        -0.93379
C         13.47120        10.65901        -0.90940
C         13.50321        12.13349        -0.80526
C         14.71697         9.96354        -0.88317
C         14.77766        12.83242        -0.97743
C         13.44872        15.05790        -1.36046
C         13.45749        16.53514        -1.24559
C         14.76499        14.28281        -1.23620
C         14.71771        17.17141        -1.11423
C         13.62127        19.35343        -1.34097
C         14.77375        18.62606        -1.13780
C         15.99005         2.00081        -0.64391
C         16.08504         3.37645        -1.27841
C         17.21564         1.34703        -0.36466
C         17.23788         4.19691        -0.68844
C         16.02404         6.34537        -1.18369
C         15.97312         7.83081        -1.05237
C         17.23157         5.60166        -0.71354
C         17.16978         8.57822        -0.64109
C         15.94074        10.67941        -0.83210
C         15.96473        12.12738        -0.86933
C         17.17067         9.95457        -0.67684
C         17.21653        12.86491        -0.72253
C         15.99507        15.03054        -0.93355
C         15.95813        16.44706        -0.93879
C         17.19190        14.31048        -0.68498
C         17.19408        17.14775        -0.71049
C         16.02787        19.29880        -1.01979
C         17.22373        18.60666        -0.80018
C         18.42723         2.04793        -0.24755
C         18.41178         3.51640        -0.26664
C         19.65132         1.36655        -0.08680
C         19.55975         4.23142         0.12813
C         18.37135         6.32878        -0.28788
C         18.32726         7.80219        -0.16751
C         19.54801         5.64900         0.12463
C         19.61155         8.56111         0.07138
C         18.47281        10.70058        -0.82256
C         18.41475        12.18018        -0.53621
C         19.66877        10.01190        -0.22738
C         19.64164        12.88618        -0.30336
C         18.40538        15.02435        -0.43912
C         18.38064        16.44836        -0.45057
C         19.63376        14.30833        -0.23947
C         19.60941        17.20263         0.01450
C         18.45481        19.29327        -0.74928
C         19.68514        18.61933        -0.51111
C         20.85048         2.04887         0.20990
C         20.74224         3.47354         0.70389
C         22.08554         1.40741         0.22486
C         22.05890         4.21226         0.63966
C         20.76993         6.40136         0.39507
C         20.83679         7.76215         0.20208
C         22.00047         5.66953         0.79605
C         22.11903         8.48109         0.05586
C         20.84254        10.71906        -0.12750
C         20.86867        12.16368        -0.16679
C         22.12515         9.98713        -0.10107
C         22.10571        12.85051         0.00518
C         20.87897        15.00966        -0.08538
C         20.90376        16.43677        -0.13109
C         22.10132        14.28754         0.02242
C         22.11605        17.11951        -0.13154
C         20.89027        19.27047        -0.61811
C         22.21691        18.57869        -0.52835
C         23.31734         2.08811         0.50607
C         23.27288         3.54673         0.70025
C         24.51678         1.39603         0.46257
C         24.52281         4.28013         0.74882
C         23.32433         6.42714         0.83627
C         23.36489         7.84675         0.46577
C         24.57059         5.66547         0.70941
C         24.56250         8.55130         0.43987
C         23.37838        10.70678         0.15583
C         23.34067        12.14481         0.16436
C         24.56343         9.98396         0.28888
C         24.56289        12.86308         0.36580
C         23.32879        14.99852         0.18665
C         23.33847        16.41967         0.10530
C         24.55246        14.29012         0.39730
C         24.57000        17.13719         0.26822
C         23.24991        19.31061         0.34572
C         24.57748        18.58190         0.28456
C         25.80948         2.02564         0.73361
C         25.80026         3.54646         0.88960
C         27.09192         1.40589         0.39925
C         27.05645         4.26643         0.45085
C         25.81100         6.42136         0.69665
C         25.80928         7.83149         0.65796
C         27.04812         5.72687         0.82192
C         27.04418         8.54190         0.77039
C         25.87504        10.70666         0.15371
C         25.79187        12.16697         0.52807
C         27.06777         9.96848         0.71034
C         26.96637        12.86929         0.83021
C         25.77538        15.00186         0.55666
C         25.77878        16.43149         0.45447
C         26.98299        14.29167         0.81502
C         27.03006        17.13949         0.52952
C         25.76710        19.26734         0.31322
C         27.03383        18.58874         0.37361
C         28.30204         2.07984         0.60403
C         28.31270         3.53161         0.83631
C         29.54792         1.41803         0.53793
C         29.45586         4.19730         1.13685
C         28.23076         6.41125         1.06269
C         28.25454         7.83420         1.01146
C         29.49438         5.67942         1.46586
C         29.50626         8.54967         1.06497
C         28.24448        10.65693         0.98200
C         28.18784        12.11924         1.18815
C         29.49740         9.96824         1.11057
C         29.50264        12.87881         1.29719
C         28.23759        15.00875         0.87953
C         28.22209        16.43986         0.69737
C         29.45098        14.31496         1.00760
C         29.50543        17.20887         0.88680
C         28.23204        19.28689         0.25831
C         29.49581        18.62590         0.35932
C         30.76084         2.05932         0.91616
C         30.70850         3.45567         1.52091
C         31.96557         1.39954         0.85391
C         31.98056         4.25108         1.26174
C         30.69096         6.34940         0.74989
C         30.74402         7.84062         1.00368
C         31.98008         5.63150         1.05015
C         31.96449         8.52946         0.99956
C         30.74595        10.69049         1.09745
C         30.76521        12.11928         1.09413
C         31.97766         9.96985         1.01827
C         31.97788        12.80349         0.93426
C         30.72010        14.96422         0.64045
C         30.71877        16.43904         0.42437
C         32.01164        14.31246         1.08946
C         32.00215        17.15752         0.36193
C         30.69940        19.25987         0.13367
C         31.97453        18.56431         0.15903
C         33.19102         2.01010         1.48297
C         33.21434         3.51453         1.27260
C         34.46507         1.31399         1.08027
C         34.40960         4.17407         1.12518
C         33.19463         6.38364         1.04939
C         33.22155         7.79308         0.97572
C         34.44929         5.64201         1.24107
C         34.46855         8.50814         0.87312
C         33.21615        10.67673         0.90905
C         33.19595        12.08948         0.85736
C         34.47167         9.94280         0.79214
C         34.45830        12.85974         0.80848
C         33.22894        14.99511         0.50103
C         33.20428        16.41048         0.27023
C         34.43238        14.29062         0.40908
C         34.41492        17.09179        -0.05021
C         33.17553        19.22760        -0.13102
C         34.39712        18.51102        -0.25983
C         35.60973         1.97491         0.69900
C         35.58895         3.45406         0.61119
C         36.85099         1.30572         0.46168
C         36.84871         4.19818         0.33695
C         35.76337         6.37893         1.14163
C         35.71734         7.81928         0.80676
C         37.05460         5.58282         0.94059
C         36.92265         8.48737         0.50978
C         35.68754        10.61798         0.57237
C         35.74618        12.08951         0.63366
C         36.91519         9.91517         0.34409
C         36.91097        12.79185         0.07007
C         35.63998        14.94209         0.02983
C         35.62629        16.35793        -0.20294
C         36.87089        14.19421        -0.12338
C         36.79377        17.04029        -0.64016
C         35.59780        19.17092        -0.60554
C         36.79548        18.45510        -0.80512
C         38.05766         1.99179         0.21309
C         38.09505         3.42386         0.13924
C         39.29003         1.28926         0.02228
C         39.26820         4.10957        -0.16485
C         38.12383         6.34854         0.21210
C         38.12809         7.71463         0.23325
C         39.20211         5.58079        -0.51907
C         39.39878         8.42114        -0.03930
C         38.08720        10.62746        -0.03349
C         38.08799        12.05146        -0.21918
C         39.37674         9.92290        -0.16203
C         39.29261        12.75638        -0.52949
C         38.05654        14.85482        -0.55118
C         37.98964        16.26688        -0.95631
C         39.27490        14.15177        -0.64992
C         39.31024        17.04174        -1.20102
C         38.03072        19.15833        -1.02818
C         39.25137        18.51186        -1.08195
C         40.45796         1.96841        -0.24910
C         40.47367         3.38669        -0.37983
C         41.66851         4.09578        -0.72948
C         40.54783         6.27909        -0.55885
C         40.58564         7.66525        -0.50572
C         41.70331         5.46841        -0.81313
C         41.78809         8.45264        -0.72292
C         40.46453        10.56475        -1.01265
C         40.63885        12.05116        -0.66287
C         41.75494         9.79072        -0.91911
C         41.48664        12.76858        -1.70196
C         40.63378        14.85178        -0.72721
C         40.58083        16.35451        -0.95427
C         41.49460        14.10539        -1.73648
C         41.71201        17.10545        -0.77156
C         40.50015        19.21809        -0.99204
C         41.68036        18.53549        -0.85763
O         22.56389         6.14976         2.07020
O         10.99216        11.44717        -2.39932
O         14.59969         4.89271        -2.55393
O         28.74220        12.49566         2.49345
O          9.05656        12.51288         0.40783
O         11.27466         2.84650         1.24484
O         30.62248        15.51929        -0.72106
O         18.68518         8.27153         1.19410
O         38.52581        16.49927        -2.30770
O         25.88263         2.73566         2.05980
O         41.21013        14.72660         0.56897
O         16.24128         7.17376        -2.37477
O          9.54985        18.47240        -1.42754
O         22.23002         9.10637        -1.29021
O         12.42542         3.63795        -2.03125
O         14.18002        14.58426        -2.56357
O         35.19191         6.10443         2.46302
O         29.65570         5.72100         2.86546
O          9.02376         6.18468         1.19760
O         35.33311        12.61835         1.96218
O          3.74350        10.50668        -1.93730
O         39.78954         9.30583         1.08729
O          4.94325        12.70755        -1.92155
O         35.88821         4.04110        -0.74755
O         12.82877        12.60335         0.46449
O         18.71858        10.61766        -2.28439
H         19.57706        11.05722        -2.46674
O         22.79804        19.36441         1.70344
H         22.58217        18.45384         1.99467
O         11.68717        19.28678        -2.65461
H         10.71270        19.14358        -2.62210
O          4.61735         4.42177         1.30654
H          5.42997         4.86222         1.63867
O         16.46729         3.12202        -2.65540
H         16.07900         3.85277        -3.19379
O         20.44205         3.37160         2.14016
H         21.25057         3.05125         2.59393
O         22.78815        18.60337        -1.87356
H         22.15916        18.15680        -2.47804
O         38.73934         5.60616        -1.92575
H         39.27656         4.95258        -2.42249
O          1.10184        13.18707         0.03432
H          1.37529        13.87232        -0.61146
O         33.04392         1.80873         2.92563
H         32.21616         2.28471         3.20100
O          3.48827         6.18316        -2.66316
H          2.72018         6.70658        -2.97678
O          8.25548        15.00301        -2.86370
H          7.35105        15.31157        -3.08392
O          5.44223        15.15908         2.96951
H          4.90508        14.51348         3.47646
O         32.06132        14.56945         2.52596
H         32.84616        14.10872         2.89242
O         11.54506         6.61321         1.40379
H         10.71672         6.75944         1.91867
O         30.42334         6.17831        -0.68194
H         31.14127         6.62439        -1.17910
O         26.99155         4.24657        -1.01564
H         27.76330         4.74963        -1.35399
O         26.14251        10.72611        -1.30735
H         25.30798        10.98199        -1.75615
O         29.69566        17.32724         2.33618
H         28.93740        17.83191         2.69874
O         41.29878        12.11075         0.61028
H         41.40010        13.08921         0.83093
O          4.74331        18.90158         0.51257
H          5.25702        18.80168        -0.31733
O         30.66374         3.30832         2.97303
H         30.31207         4.20421         3.29046
O         37.62724         5.32716         2.25566
H         36.92022         5.51488         2.91927
O         19.44170        17.33759         1.47265
H         18.63301        17.87200         1.62377
O         40.00176        10.51323        -2.39115
H         40.08783         9.59189        -2.71408
H          0.28344         1.45796        -1.18602
H          0.19797         3.93984        -1.03975
H          2.44727         0.24770        -0.95340
H          0.37593         5.81098         0.19892
H          0.46846         8.25834         0.42988
H          1.51375         9.55991         1.95016
H          1.42325        11.89838         2.64888
H          1.07275        14.04162         2.73906
H          1.57842        16.25664         3.75181
H          3.21009        18.07639         4.23824
H          4.88481         0.28614        -0.54004
H          4.97907        19.51101         3.29995
H          7.32162         0.29321        -0.31368
H          7.09800        19.59831         2.16913
H          9.73757         0.26094        -0.27074
H          9.30483        19.44491         1.75952
H         12.37596         0.21902        -0.04459
H         11.99740        19.28279         0.76077
H         14.80963         0.29731        -0.10390
H         13.69058        20.44723        -1.44172
H         17.20505         0.26542        -0.15846
H         16.04513        20.39589        -1.09825
H         19.67606         0.27532        -0.23179
H         18.47058        20.37277        -0.96272
H         22.13302         0.33626        -0.02676
H         20.90092        20.32512        -0.93696
H         24.50830         0.33513         0.16784
H         23.37156        20.36357        -0.00766
H         27.10198         0.36029         0.05493
H         25.76462        20.36784         0.29663
H         29.57647         0.34751         0.28016
H         28.21061        20.36372         0.03164
H         32.01396         0.37745         0.44604
H         30.70493        20.32744        -0.13577
H         34.49264         0.22031         1.20553
H         33.16784        20.31032        -0.32549
H         36.87069         0.20692         0.52205
H         35.59584        20.26457        -0.72595
H         39.29284         0.19182         0.09082
H         38.00597        20.25856        -1.01257
H         41.39543         1.41295        -0.39763
H         42.58826         3.51815        -0.90167
H         42.66288         5.95875        -1.02985
H         42.75870         7.93582        -0.74169
H         42.69509        10.33989        -1.07423
H         42.11015        12.17328        -2.38659
H         42.13391        14.66338        -2.43780
H         42.66384        16.60262        -0.55238
H         40.48441        20.31762        -0.98864
H         42.62432        19.09058        -0.76330
