         667
 CSIRO Nanostructure Databank - Neutral Graphene Oxide Data Set
C          5.73841        31.78731        -0.43059
C          5.74458        33.10933        -0.17732
C          8.36077        27.40256        -0.31473
C          8.33362        28.82481        -0.28855
C          7.04255        29.59380         0.00043
C          8.25833        31.72215        -0.64232
C          6.94755        30.93338        -0.77745
C          8.26853        33.11816        -0.09981
C          6.98883        33.88248         0.08808
C          8.25369        36.04533        -0.05177
C          7.05884        35.35612         0.08123
C          8.33523        37.46756         0.02762
C         10.81787        23.10793        -0.19132
C         10.80724        24.46205        -0.31217
C          9.51506        25.18884        -0.65408
C         10.80487        27.37657        -0.46822
C          9.55085        26.69182        -0.44692
C         10.79663        28.82096        -0.43596
C          9.53929        29.51065        -0.41585
C         10.75200        31.70824        -0.06769
C          9.55177        30.98559        -0.49672
C         10.74139        33.14548        -0.03885
C          9.53576        33.84893        -0.19464
C         10.79540        36.02078        -0.11515
C          9.51483        35.31591        -0.47173
C         10.84011        37.50281        -0.40433
C          9.53494        38.20165        -0.05250
C         10.77152        40.34513         0.14572
C          9.55244        39.59887         0.09281
C         10.80518        41.74761         0.14264
C         13.31663        18.79828        -0.63875
C         13.28000        20.22241        -0.41913
C         12.09761        20.91252        -0.28256
C         13.33223        23.08659        -0.04958
C         12.04864        22.33467         0.22047
C         13.29176        24.53436        -0.13100
C         12.04991        25.22413        -0.23931
C         13.29968        27.35038        -0.53888
C         12.02478        26.63461        -0.39895
C         13.26535        28.89593        -0.52292
C         11.99261        29.56968        -0.31055
C         13.16804        31.69709         0.24595
C         11.98244        30.99401        -0.01716
C         13.12970        33.12744         0.73552
C         11.94574        33.87883         0.19744
C         13.28138        36.02067        -0.03140
C         11.95746        35.29724         0.11067
C         13.24973        37.46504         0.41493
C         12.05615        38.21546         0.14755
C         13.23881        40.35316         0.45219
C         12.01998        39.61069         0.25437
C         13.25817        41.73461         0.41373
C         12.03075        42.48487         0.22653
C         13.29758        44.65504         0.14838
C         12.07345        43.88367         0.11710
C         13.31610        46.03535         0.00528
C         15.78713        14.50440        -1.38099
C         15.80496        15.97646        -1.01230
C         14.57145        16.68343        -0.85800
C         15.81482        18.86744        -0.86457
C         14.51495        18.08931        -0.73450
C         15.75340        20.25185        -0.24802
C         14.55760        20.92754        -0.20972
C         15.81464        23.07951        -0.16421
C         14.51972        22.37646        -0.08256
C         15.80343        24.56561        -0.10006
C         14.50962        25.27914        -0.07796
C         15.81316        27.38075        -0.03130
C         14.55764        26.67093        -0.18816
C         15.83996        28.86543        -0.03423
C         14.53702        29.60410        -0.17094
C         15.65777        31.63997         0.85829
C         14.39930        30.93712         0.47779
C         15.69380        33.10229         0.57877
C         14.43975        33.86674         0.53771
C         15.73361        35.94410         0.64066
C         14.49408        35.23113         0.40615
C         15.64368        37.33063         0.98927
C         14.42556        38.10086         0.79514
C         15.72184        40.38339         0.72807
C         14.52214        39.55433         0.35373
C         15.75102        41.75859         0.12824
C         14.53746        42.50004         0.69652
C         15.78725        44.59754         0.10793
C         14.55558        43.94724         0.26286
C         15.83390        46.02500        -0.01578
C         14.57934        46.80793         0.26890
C         15.85167        48.87314        -0.48092
C         14.63354        48.20756        -0.26294
C         15.87982        50.27930        -0.64817
C         18.40618        10.27787        -0.86607
C         18.37272        11.69192        -1.00572
C         17.14140        12.40002        -1.08556
C         18.34301        14.50194        -1.16680
C         17.11325        13.78422        -1.18030
C         18.29032        15.97876        -1.19346
C         17.00684        16.64943        -0.90039
C         18.31507        18.78905        -0.41941
C         16.99478        18.05147        -0.33427
C         18.27150        20.29808        -0.43124
C         17.04132        20.87164         0.27160
C         18.26097        23.07557         0.26641
C         17.07214        22.38156         0.16214
C         18.28917        24.52948         0.34273
C         16.97559        25.24005         0.55664
C         18.21718        27.41540         0.58679
C         16.99473        26.71762         0.27840
C         18.20063        28.79120         0.80675
C         16.99888        29.55112         0.61838
C         18.11950        31.67077         1.32971
C         16.94285        30.90957         0.86655
C         18.20886        33.11984         1.14105
C         17.02867        33.83640         0.65241
C         18.16335        35.97417         1.21077
C         16.97168        35.28992         0.84078
C         18.10430        37.37793         1.48650
C         16.77292        37.88466         1.59802
C         18.09104        40.54196         1.43237
C         16.73760        40.04536         1.56704
C         18.22054        41.75344         0.77936
C         17.03838        42.48755         0.40608
C         18.30212        44.56996         0.11907
C         17.04520        43.85757         0.18904
C         18.28581        45.94620        -0.12747
C         17.05561        46.69565        -0.17336
C         18.34231        48.78490        -0.53539
C         17.10742        48.12145        -0.42763
C         18.41438        50.19411        -0.95129
C         17.08750        50.98963        -1.02687
C         18.42377        53.09105        -0.99758
C         17.20596        52.45405        -0.96707
C         18.49416        54.52276        -1.21495
C         20.88346         6.02115        -0.79522
C         20.87949         7.39596        -0.76373
C         19.57785         8.11129        -0.48673
C         20.84559        10.30121        -0.86815
C         19.60584         9.59571        -0.76622
C         20.83971        11.69366        -1.03229
C         19.60785        12.40707        -1.05604
C         20.83731        14.57314        -0.95464
C         19.58101        13.83921        -1.09945
C         20.83187        15.97901        -0.81584
C         19.57056        16.73434        -0.97130
C         20.77698        18.76478         0.02741
C         19.49962        18.13657        -0.48961
C         20.76439        20.27138        -0.00484
C         19.55678        20.96315         0.01661
C         20.75141        23.05697         0.40612
C         19.54322        22.36472         0.25729
C         20.75554        24.50322         0.81887
C         19.46451        25.22949         0.50003
C         20.68046        27.35232         0.80582
C         19.47100        26.67014         0.67213
C         20.70506        28.76160         1.07678
C         19.39440        29.38008         1.51472
C         20.62068        31.68764         1.32509
C         19.38717        30.90306         1.58783
C         20.60515        33.11384         1.61845
C         19.39445        33.81784         1.46056
C         20.55201        36.01207         1.75613
C         19.40192        35.28721         1.45269
C         20.54259        37.46356         1.76834
C         19.27818        38.15976         1.67210
C         20.58761        40.38254         1.76956
C         19.26547        39.66527         1.80368
C         20.57821        41.91387         1.55995
C         19.56774        42.35242         0.48967
C         20.73332        44.54045         0.50485
C         19.53544        43.86429         0.37045
C         20.84483        45.90954         0.00624
C         19.55315        46.64460        -0.34406
C         20.81971        48.78356        -0.28476
C         19.58524        48.10844        -0.35286
C         20.85322        50.22274        -0.45869
C         19.67219        50.93327        -0.75121
C         20.90078        53.04764        -0.72684
C         19.68653        52.35626        -0.85017
C         20.90417        54.55295        -0.59889
C         19.67842        55.20797        -1.17832
C         20.98655        57.21720        -1.73103
C         19.77993        56.58663        -1.58804
C         21.01025        58.62213        -2.28903
C         23.35894         3.17726        -0.66677
C         22.13080         3.87825        -0.85260
C         23.33324         6.00924        -1.16691
C         22.09253         5.26200        -0.95266
C         23.35193         7.45528        -0.93842
C         22.11283         8.15200        -0.83282
C         23.33866        10.27724        -0.80477
C         22.10616         9.56854        -0.83160
C         23.36313        11.71205        -0.84958
C         22.12549        12.43296        -1.32598
C         23.27403        14.58180        -0.68354
C         22.07898        13.88720        -0.92316
C         23.24162        15.97963        -0.49778
C         22.03114        16.68020        -0.59800
C         23.27975        18.85356        -0.14405
C         22.01632        18.18911        -0.64929
C         23.25189        20.26778        -0.00165
C         21.99743        20.97269         0.07084
C         23.23676        23.10711         0.22850
C         21.99057        22.38172         0.24331
C         23.18550        24.56360         0.25688
C         22.00030        25.22694         0.38216
C         23.15262        27.19250         1.31780
C         21.99881        26.73767         0.38276
C         23.14292        28.69764         1.52204
C         21.89336        29.44382         1.24047
C         23.14553        31.64752         1.50335
C         21.93858        30.92211         1.23159
C         23.11435        33.05035         2.07555
C         21.91238        33.87598         1.54107
C         23.09689        35.99798         2.22163
C         21.75879        35.23492         2.27336
C         23.05877        37.42881         1.76612
C         21.77407        38.16225         1.83201
C         23.09412        40.37490         1.80990
C         21.82782        39.59820         1.35678
C         23.18539        41.73301         1.09035
C         21.92406        42.52721         1.22650
C         23.19056        44.62679         1.02438
C         21.95549        43.86684         0.91338
C         23.17501        46.01895         0.83760
C         22.03417        46.70242         0.32652
C         23.27701        48.81573         0.20287
C         22.02757        48.08876         0.08449
C         23.32355        50.20790        -0.21111
C         22.10178        50.91533        -0.43432
C         23.39226        53.00139        -0.67052
C         22.12908        52.33345        -0.59271
C         23.45784        54.50826        -0.57151
C         22.20039        55.20458        -1.02111
C         23.50933        57.20523        -1.62329
C         22.23388        56.50854        -1.45600
C         23.53998        58.58795        -1.93849
C         22.33655        59.32964        -2.16236
C         23.63827        61.37921        -2.38347
C         22.39566        60.69681        -2.36692
C         24.57094         3.81463        -0.61273
C         25.85801         6.01961        -0.62473
C         24.69769         5.22029        -0.98447
C         25.83740         7.41723        -0.69591
C         24.58028         8.13970        -0.83223
C         25.79606        10.27928        -0.58743
C         24.57220         9.56214        -0.72300
C         25.78636        11.69541        -0.50942
C         24.54786        12.40358        -0.66390
C         25.79123        14.53220        -0.13953
C         24.61516        13.89930        -0.87563
C         25.66892        15.91169         0.39947
C         24.42402        16.67132         0.07484
C         25.72284        18.84507         0.08408
C         24.47262        18.15167         0.02479
C         25.69539        20.25378        -0.00268
C         24.47465        20.98326         0.06165
C         25.71085        23.17192         0.11627
C         24.45394        22.42511         0.11451
C         25.70552        24.54661         0.22889
C         24.45472        25.35629         0.04823
C         25.68020        27.35200         1.00314
C         24.48775        26.67003         0.82169
C         25.72217        28.74807         1.43593
C         24.42760        29.44366         1.65539
C         25.66515        31.67513         1.46717
C         24.40049        30.91869         1.43007
C         25.62365        33.15157         1.69399
C         24.43487        33.79673         1.91429
C         25.67728        36.02779         1.86076
C         24.41579        35.26820         2.10784
C         25.65546        37.40850         1.90169
C         24.38883        38.15335         1.67281
C         25.58168        40.34621         1.70642
C         24.41447        39.63431         1.69158
C         25.61948        41.80956         1.59701
C         24.42388        42.51788         1.45850
C         25.63009        44.64587         1.55290
C         24.40607        43.93810         1.38308
C         25.60944        46.11281         1.68976
C         24.33764        46.82605         1.25080
C         25.72765        48.82463         0.60202
C         24.39858        48.20826         0.74554
C         25.82131        50.16852        -0.07690
C         24.54992        50.87824        -0.34601
C         25.88330        52.86540        -1.12155
C         24.57771        52.26806        -0.64453
C         25.89752        54.37273        -1.17873
C         24.72097        55.10453        -1.13382
C         25.98456        57.15896        -1.65559
C         24.72754        56.49818        -1.45033
C         26.00113        58.54451        -1.89723
C         24.80266        59.27212        -2.01563
C         24.81589        60.68370        -2.23705
C         27.04053         8.16247        -0.54509
C         28.25394        10.31903        -0.50978
C         27.04346         9.56737        -0.53617
C         28.24263        11.70701        -0.44323
C         27.01118        12.41266        -0.36847
C         28.19977        14.45021         0.51815
C         26.96474        13.82860        -0.03714
C         28.20643        15.92296         0.86616
C         26.89205        16.73480         0.88975
C         28.20111        18.77800         0.18071
C         26.98644        18.12147         0.24260
C         28.25283        20.22303        -0.16022
C         26.94603        20.99550        -0.19410
C         28.17935        23.08347         0.24835
C         26.96698        22.44648         0.05981
C         28.26651        24.54950         0.25953
C         26.95491        25.32398         0.22983
C         28.16708        27.35076         0.96301
C         26.95214        26.70796         0.72968
C         28.17485        28.78601         1.25697
C         26.89978        29.45516         1.49360
C         28.09811        31.64780         1.17588
C         26.92328        30.93976         1.88017
C         28.10983        33.15410         1.40005
C         26.89551        33.86157         1.60197
C         28.14029        35.96420         1.50961
C         26.91625        35.28160         1.70498
C         28.20001        37.41418         1.75128
C         26.91720        38.16818         2.04558
C         28.01726        40.31824         1.21610
C         26.90619        39.70290         2.05655
C         28.06512        41.80042         1.20490
C         26.86867        42.52065         1.46536
C         28.09466        44.70501         1.29404
C         26.86153        43.95887         1.47272
C         28.15160        46.09058         1.36865
C         26.94268        46.84086         1.89214
C         28.18829        49.03558         1.20551
C         26.89191        48.31868         1.40808
C         28.21040        50.39185         0.60803
C         27.06936        50.97314         0.06977
C         28.35445        52.96755        -0.58438
C         27.10216        52.29146        -0.44675
C         28.40491        54.18343        -1.49186
C         27.14963        55.02342        -1.40881
C         27.18876        56.39180        -1.59253
C         29.53241        12.47435        -0.59153
C         30.73135        14.61388         0.04663
C         29.52409        13.79337         0.16527
C         30.76840        15.97459         0.37674
C         29.50625        16.66810         0.78681
C         30.66161        18.80959         0.52800
C         29.47327        18.13758         0.52314
C         30.77540        20.24408         0.07209
C         29.46929        20.98412         0.18469
C         30.59225        23.05892         0.88852
C         29.41250        22.34837         0.41062
C         30.68595        24.46282         0.97715
C         29.47390        25.23165         0.75039
C         30.68080        27.31089         1.20141
C         29.41009        26.60560         0.96538
C         30.66240        28.81409         1.16561
C         29.35552        29.49780         1.24105
C         30.58955        31.67172         0.93051
C         29.41491        30.97163         1.55014
C         30.66732        33.16269         1.12563
C         29.31795        33.85092         1.23161
C         30.57470        35.99411         0.92916
C         29.33754        35.26665         1.22871
C         30.55894        37.44330         0.98440
C         29.41799        38.13111         1.31284
C         30.51170        40.32219         0.64647
C         29.28294        39.56332         0.96448
C         30.46388        41.75597         0.62031
C         29.27690        42.45978         0.87726
C         30.56700        44.67077         0.64065
C         29.27142        43.94316         0.80318
C         30.69094        46.07525         1.18271
C         29.38261        46.83981         1.17231
C         30.62994        48.92203         0.65943
C         29.42963        48.22355         1.13060
C         30.63047        50.29991         0.46839
C         29.46585        51.19003         0.81702
C         29.49063        52.44125        -0.01711
C         31.95043        16.71841         0.38459
C         33.19807        18.90018         0.76552
C         31.93081        18.10147         0.98078
C         33.20501        20.27886         0.84511
C         31.89679        20.93583         0.79177
C         33.50616        23.26079         1.27721
C         31.67000        22.19158         1.27975
C         33.26748        24.55522         0.85926
C         31.96138        25.19952         1.01886
C         33.09581        27.34276         0.43002
C         31.92593        26.58117         0.90873
C         33.00800        28.83339         0.19574
C         31.81853        29.56055         0.66830
C         32.97405        31.76111         0.41294
C         31.72935        30.96698         0.57088
C         32.82377        33.09743        -0.29639
C         31.49631        33.86518         0.03109
C         32.82314        36.04540        -0.12644
C         31.67471        35.33183         0.38721
C         32.85587        37.44741        -0.11035
C         31.85369        38.19174         0.74097
C         32.75684        40.34009        -0.42638
C         31.66668        39.63276         0.33924
C         32.93763        41.75416         0.02357
C         31.81022        42.43576         0.73101
C         33.03189        44.59094         0.29226
C         31.82252        43.91254         0.53116
C         33.00576        46.03259         0.21377
C         31.86730        46.78133         0.53178
C         31.79496        48.16673         0.32967
C         34.44674        21.04322         0.74525
C         35.73503        23.18190         0.33267
C         34.59132        22.43396         0.80812
C         35.69670        24.56904         0.23678
C         34.44783        25.29926         0.46786
C         35.68518        27.45835         0.44953
C         34.40198        26.67298         0.38994
C         35.56699        28.89890         0.06926
C         34.27677        29.62260        -0.15901
C         35.56372        31.87654         0.10678
C         34.28215        31.06541         0.35639
C         35.31797        33.24481        -0.49018
C         34.09451        33.91280        -0.31947
C         35.13132        35.99229        -1.07916
C         34.00099        35.31086        -0.55954
C         35.04045        37.45997        -1.41569
C         33.97046        38.17646        -0.62577
C         35.27904        40.27608        -0.75202
C         34.03541        39.56039        -0.54339
C         35.31357        41.67485        -0.58197
C         34.16159        42.42172        -0.15774
C         34.21416        43.83970         0.03404
C         36.81065        25.34588        -0.26637
C         37.85544        27.50158        -0.87530
C         36.80988        26.72693        -0.26847
C         37.86930        28.88523        -0.89620
C         36.84815        29.66704        -0.09314
C         37.66637        31.75429        -1.23606
C         36.65348        31.08641        -0.56784
C         37.58981        33.17664        -1.46452
C         36.41648        33.90915        -1.09917
C         37.34749        36.00511        -2.22869
C         36.28383        35.28956        -1.43295
C         37.50934        37.41265        -1.71495
C         36.39938        38.13737        -1.33190
C         36.45154        39.52354        -1.02394
C         38.88722        29.63025        -1.57086
C         39.92004        31.75112        -2.29735
C         38.83459        31.00952        -1.70232
C         39.87386        33.10474        -2.43846
C         38.69529        33.87341        -2.07484
C         38.62600        35.22885        -2.33738
O          7.70003        33.27497         1.25497
O         27.40117        49.16432         2.47430
O         28.91651        13.64737         1.50227
O         24.13260         5.56329        -2.29014
O         27.64671        20.59824        -1.44286
O         28.98698        16.21305         2.07439
O         19.00875        16.59270        -2.33583
O         26.05947        48.94130        -0.84989
O         28.22939        39.71237        -0.09387
O         32.78632        32.72461        -1.66739
O         20.39771        46.04593        -1.38862
O         16.51377        33.32878        -0.62902
O         21.19346        31.43865        -0.01760
O         23.68636        29.05105         2.86480
O         24.64918        46.61694         2.68643
O         17.75957        50.43911        -2.23017
O         30.85299        28.07495         2.47431
O         18.61722        31.34203         2.73305
O         33.75290        31.46339         1.66287
O         15.48743        29.56969        -1.27904
O         29.69885        44.47494        -0.52442
O         13.36297        28.15274        -1.76551
O         32.60782        22.70531         2.18804
O         32.69794        27.92199        -0.93871
O         27.75862        25.14768        -0.99265
O         20.00273        40.03698         3.04820
O         27.76652        37.69717         3.15377
O         23.86491        35.73526         3.42800
O         24.61105        16.05143         1.41769
O         23.70647        37.63241         0.43857
O         25.18026        31.27912         0.14074
O         14.79341        31.08878         1.93179
O         16.57435        38.96921         2.44559
O         16.01582        23.92546        -1.38700
O          9.07808        31.57302        -1.83541
O         15.59243        41.76880        -1.32376
H         16.44239        41.48760        -1.72327
O         27.96106        31.41844        -0.24119
H         27.04358        31.64162        -0.51709
O         15.40687        14.37765        -2.76591
H         16.04108        14.89782        -3.30186
O         24.46663        25.74356        -1.38125
H         25.38327        26.00605        -1.61960
O         10.99149        37.60474        -1.86992
H         10.29764        37.01100        -2.25677
O          7.00983        29.89215         1.39886
H          7.08720        29.05632         1.90155
O         26.99813        31.06231         3.31108
H         27.94305        30.94347         3.57995
O         19.95134        59.40751        -1.72416
H         20.16837        59.58474        -0.78631
O         27.15672        46.85844         3.32096
H         26.31755        47.16283         3.73363
O          9.45006        35.37189        -1.97944
H         10.08845        34.70744        -2.32279
O         13.44723        36.12368        -1.48846
H         12.77504        36.77156        -1.81901
O         21.90297        18.56429        -2.05146
H         22.64933        18.16345        -2.54362
O         16.74263        17.89369         1.09882
H         17.54611        17.51896         1.51636
O         22.27243        12.46145        -2.80015
H         21.44063        12.83061        -3.16844
O         32.25934        40.42270        -1.82262
H         32.51761        39.59771        -2.28956
O         29.63482        31.09210         3.00675
H         30.29899        30.40973         3.25429
O         14.59511        47.00216         1.76403
H         15.46360        47.40252         1.98753
O         22.23960        27.25591        -0.94110
H         22.99129        26.75303        -1.34798
O         11.95155        22.21698         1.69436
H         11.95938        23.12813         2.05737
O         19.28806        28.89996         2.89662
H         18.77196        29.58483         3.38722
O         20.85382        18.37151         1.42833
H         20.22649        18.92679         1.93797
O         22.90054        40.61512         3.22292
H         23.69275        41.07374         3.57455
O         20.82695        24.51731         2.29469
H         21.44658        25.24048         2.56497
O         16.03650        19.04584        -2.28878
H         15.46989        19.78055        -2.60352
O         12.93203        33.06638         2.19803
H         13.54785        32.36646         2.53153
O         23.54937        54.76039         0.87985
H         22.63712        54.62739         1.24293
O         36.82828        36.12292        -3.62369
H         36.62096        35.21470        -3.93383
O         32.50394        38.26908         2.06707
H         31.88175        38.71695         2.67975
O         27.14974        40.14050         3.42115
H         27.55763        39.37645         3.89649
O          6.76512        30.57598        -2.16408
H          7.62469        30.74777        -2.62036
O         32.12812        42.24984         2.19186
H         32.93413        42.78159         2.37479
O         34.27746        29.82309        -1.61191
H         33.77087        29.06704        -1.99731
O         22.15258        34.16182         0.14834
H         22.02666        33.31837        -0.34955
O         28.53641        53.70886        -2.84654
H         27.69921        53.22912        -3.06133
O         20.16078        42.53694         2.79291
H         20.02415        41.81213         3.45130
O         36.13504        32.15409         1.44626
H         35.35128        32.25574         2.04565
O         20.02929        41.83790        -0.79173
H         19.71911        42.43922        -1.50077
O         23.35463        41.52691        -0.34288
H         22.54948        41.05171        -0.67015
O         16.70297        25.11742         1.99809
H         17.48967        25.45237         2.48073
O         36.06044        27.49079         1.88324
H         36.76632        28.18421         1.96598
O         31.10223        20.20831        -1.35848
H         30.27114        20.03766        -1.85189
O         22.91054        32.85269         3.50901
H         23.67352        32.34600         3.86049
O         14.67081        39.33761        -1.10314
H         14.69345        40.23388        -1.52479
O          8.40894        24.60166         0.03803
H          8.58666        24.64496         0.99945
O         24.90203        14.07020        -2.31142
H         24.20386        13.56790        -2.79475
O         20.81385        54.79788         0.87026
H         20.62279        55.75373         0.98703
O         18.49172         7.48215        -1.17701
H         18.66793         7.53616        -2.13850
O         34.60326        37.56820        -2.80605
H         35.29983        37.11843        -3.35285
O         14.69863        42.53248         2.14545
H         13.97926        43.08546         2.51649
O         31.36244        33.38125         2.38772
H         30.89987        32.84035         3.06707
O         31.03453        45.89911         2.59286
H         30.94421        46.76814         3.03810
O         29.75834        12.73005        -1.99274
H         28.90287        12.95811        -2.41153
O         26.64946        17.08189         2.26774
H         26.55101        16.25439         2.78305
O         26.00366        52.43533        -2.53724
H         25.96869        51.45349        -2.55132
O         29.54096        51.57055         2.24007
H         30.35912        52.09563         2.36290
O         31.82114        17.93160         2.43827
H         31.04337        17.35764         2.61692
O         18.12450        20.67105        -1.82959
H         18.77672        20.16277        -2.35671
O         22.88615        26.56124         2.60179
H         23.25984        27.16054         3.29112
O         21.42670        35.00530         3.65107
H         22.27038        34.82903         4.13115
O         30.69911        33.88438        -1.16006
H         31.27898        33.44425        -1.85337
O         17.16192        20.52592         1.68008
H         16.30366        20.70621         2.11744
O         21.78493        39.49544        -0.09223
H         22.48235        38.83727        -0.34653
O         37.43251        29.78565         1.27573
H         37.07855        30.64060         1.64890
H          4.76704        31.28371        -0.55745
H          4.78647        33.64022        -0.05839
H          7.41442        26.84278        -0.26080
H          6.15826        28.95157        -0.27190
H          6.12947        35.92071         0.25837
H          7.39821        38.02576         0.18975
H          9.86572        22.55854        -0.26110
H          9.31825        25.02118        -1.75119
H          8.59809        40.13580         0.21419
H          9.86180        42.30585         0.03876
H         12.36137        18.24978        -0.64632
H         11.14243        20.37477        -0.38802
H         11.12798        44.43142        -0.01655
H         12.37583        46.58997        -0.13392
H         14.99153        13.98265        -0.78839
H         13.63044        16.11256        -0.89192
H         13.70290        48.79583        -0.26596
H         14.96892        50.85935        -0.43656
H         17.46189         9.71617        -0.81665
H         16.19936        11.83196        -1.08058
H         16.28194        53.05263        -0.97707
H         17.57443        55.04192        -1.52638
H         19.93107         5.48148        -0.68265
H         19.35567         7.98766         0.61313
H         18.85809        57.12369        -1.85883
H         20.77928        58.54368        -3.39056
H         23.30760         2.10311        -0.43725
H         21.18783         3.32066        -0.75692
H         23.65284        62.46604        -2.54552
H         21.46395        61.25646        -2.53173
H         25.46479         3.28096        -0.25778
H         26.77469         5.50892        -0.29280
H         26.96382        59.06553        -2.00730
H         25.78278        61.20503        -2.28439
H         27.99495         7.62066        -0.46994
H         29.21490         9.78516        -0.55309
H         29.30864        54.80278        -1.26631
H         28.15332        56.90138        -1.73682
H         30.39455        11.85551        -0.23415
H         31.64102        14.13305        -0.34275
H         31.51427        50.75591        -0.00687
H         30.45124        52.96871        -0.13172
H         32.90462        16.23707         0.12216
H         34.14904        18.34609         0.72875
H         33.90732        46.55478        -0.14187
H         32.65424        48.69297        -0.11356
H         35.33467        20.45895         0.45027
H         36.64522        22.63987         0.03408
H         36.26535        42.20759        -0.72255
H         35.15571        44.37106        -0.16634
H         37.67298        24.80561        -0.68880
H         38.65809        26.95673        -1.39913
H         38.51143        37.86809        -1.68954
H         37.42215        40.04220        -1.06736
H         39.73663        29.08105        -2.00681
H         40.81280        31.19466        -2.61935
H         40.72424        33.64334        -2.88181
H         39.48237        35.72534        -2.81973
