         252
 CSIRO Nanostructure Databank - Neutral Graphene Oxide Data Set
C         30.48602        31.98060        -1.57514
C         30.51019        33.17803        -1.19705
C         30.33169        36.01114         0.08279
C         30.39465        37.23880         0.32213
C         30.28354        40.30732         0.72749
C         30.21404        41.53371         0.39272
C         32.89660        29.11727        -1.62956
C         31.79693        29.72846        -1.81047
C         32.86255        31.80543        -1.20261
C         31.56961        31.07960        -1.58936
C         32.78339        33.18046        -0.64897
C         31.60994        33.91983        -0.65138
C         32.70318        35.90264         0.36311
C         31.56280        35.25268        -0.06928
C         32.64507        37.21680         1.15758
C         31.42201        38.09425         0.76446
C         32.56066        40.28521         1.48118
C         31.38807        39.45969         0.90962
C         32.57961        41.78614         1.02744
C         31.30493        42.38670         0.38082
C         32.69713        44.14880        -0.54473
C         31.61179        43.59542        -0.26840
C         35.63537        27.48138        -1.41367
C         35.29944        28.75071        -0.91486
C         34.12192        29.49812        -1.07827
C         35.29418        31.66119        -0.25300
C         34.13650        30.99075        -0.91998
C         35.25944        33.00292        -0.00545
C         33.93103        33.70974         0.20434
C         35.17670        35.84652         0.90503
C         34.04110        35.24378         0.05713
C         35.20689        37.34958         0.73578
C         33.94923        38.04536         1.12495
C         35.14522        40.32438         0.84222
C         33.92551        39.55600         1.24600
C         35.17510        41.69560         0.79562
C         33.90111        42.49970         0.85311
C         35.27586        44.49484        -0.11493
C         33.95856        43.88211         0.16472
C         35.59421        45.49777        -1.16833
C         37.97748        27.40382        -0.99724
C         36.75385        26.92324        -1.56128
C         37.82912        28.65020        -0.38703
C         36.51468        29.32071        -0.26184
C         37.79904        31.54966         0.15245
C         36.52082        30.86173         0.03678
C         37.73529        32.99512         0.47630
C         36.55094        33.80661         0.00132
C         37.66948        35.91240         0.80425
C         36.50328        35.18328         0.63589
C         37.64391        37.34722         0.76042
C         36.39675        38.04914         0.63268
C         37.66934        40.22414         0.69281
C         36.35129        39.54878         0.30731
C         37.72146        41.70171         0.92343
C         36.45089        42.43262         0.65473
C         37.74070        44.61470         0.48763
C         36.51386        43.74082         0.28153
C         38.02808        45.59761        -0.67253
C         36.78369        45.85747        -1.29071
C         40.60310        24.74863        -1.40203
C         39.49001        25.32478        -1.42795
C         40.37881        27.20231        -0.20907
C         39.33626        26.82236        -1.29097
C         40.32030        28.63571         0.27392
C         38.99399        29.36088         0.21567
C         40.24638        31.51397         0.49640
C         39.01352        30.84948         0.29050
C         40.29788        32.95359         0.99134
C         38.96470        33.69867         0.91525
C         40.09191        35.84429         0.13615
C         39.01264        35.21363         1.05290
C         40.20052        37.33230         0.47536
C         38.92366        38.08701         0.72520
C         40.22116        40.25195         0.48588
C         38.92083        39.51853         0.21258
C         40.22780        41.66107         0.71139
C         39.03477        42.40092         0.84275
C         40.36055        44.62398         0.79639
C         39.03879        43.88703         0.88055
C         40.43766        45.91141         0.01433
C         39.20801        46.30747        -0.70242
C         40.41239        48.26080        -1.46254
C         39.43388        47.48865        -1.46913
C         43.13409        24.62630        -0.65545
C         41.82850        25.08835        -0.79125
C         42.91529        27.23652         0.16888
C         41.68458        26.45328        -0.11909
C         42.83324        28.70921         0.12333
C         41.55721        29.42269         0.30073
C         42.73228        31.60157         0.51009
C         41.50860        30.82035         0.44639
C         42.68573        32.99365         0.34193
C         41.47160        33.71513         0.41355
C         42.59527        35.84836        -0.08724
C         41.44344        35.13321         0.22307
C         42.58139        37.27947        -0.41460
C         41.31654        38.08446        -0.17615
C         42.62097        40.18073        -0.13351
C         41.40543        39.54860         0.09744
C         42.80647        41.54541         0.40554
C         41.56397        42.31707         0.85001
C         42.94355        44.56794         0.70616
C         41.65855        43.83059         1.15703
C         42.93040        46.04660         0.34796
C         41.62619        46.63331        -0.13292
C         42.91315        48.52960        -0.97320
C         41.67911        47.90332        -0.91506
C         44.10620        25.23401        -0.11295
C         45.37232        27.37787         0.53714
C         44.18586        26.62730         0.19585
C         45.35175        28.75940         0.65199
C         44.11010        29.49057         0.35998
C         45.30730        31.64268         0.19004
C         44.05241        30.93002         0.81614
C         45.26147        33.13059         0.45080
C         43.94567        33.79320         0.33946
C         45.16928        35.93912        -0.33064
C         43.88826        35.12352        -0.36939
C         45.08635        37.34716        -0.64999
C         43.86506        37.99074        -0.57868
C         44.96075        40.23154        -1.14537
C         43.74477        39.45098        -0.78784
C         44.85385        41.69136        -0.89275
C         44.00384        42.31716        -0.03356
C         45.49616        44.48187         0.20722
C         44.19323        43.74537         0.41524
C         45.57377        45.99693        -0.03812
C         44.25112        46.69206        -0.07457
C         43.98340        47.90022        -0.62398
C         47.78849        27.44436         0.98096
C         46.71228        26.87673         0.71999
C         47.92354        28.91397         0.57392
C         46.57703        29.55439         1.10189
C         47.70681        31.87886         1.23803
C         46.55854        31.01633         0.73354
C         47.66382        33.32894         0.73581
C         46.51332        33.91632         0.27890
C         47.62607        36.06918        -0.35888
C         46.41453        35.31653        -0.15000
C         47.61994        37.37207        -0.87980
C         46.30191        38.00965        -1.31238
C         47.70557        40.28154        -1.16802
C         46.34463        39.57585        -1.29020
C         47.89663        41.69936        -0.71584
C         46.87164        42.63814        -0.82627
C         47.97662        44.29602         0.54956
C         46.81430        43.81989        -0.09225
C         47.71063        45.63538         1.02829
C         46.70422        46.36706         0.96127
C         50.46157        29.22784         0.50417
C         49.12073        29.67399         1.13688
C         50.30088        31.96954         1.22556
C         49.05624        31.20876         0.75069
C         50.21073        33.50429         1.18105
C         48.88668        34.15834         0.87485
C         50.17466        36.07158        -0.26141
C         48.88564        35.52141         0.21155
C         50.06033        37.12723        -1.35247
C         48.86166        38.04417        -1.11734
C         50.20746        40.12303        -1.00512
C         48.95408        39.45122        -1.09992
C         50.32606        41.41286        -0.37392
C         49.11628        42.17783        -0.14872
C         50.46831        43.82175         0.84017
C         49.14853        43.51008         0.44226
C         51.46660        29.94512         0.72887
C         52.69554        32.20895         1.17494
C         51.65265        31.32034         1.00090
C         52.55227        33.48308         1.10463
C         51.44913        34.28196         0.89164
C         52.50329        36.19360        -0.44680
C         51.37439        35.48818         0.12119
C         52.52577        37.05556        -1.33921
C         51.36792        37.90354        -1.65154
C         52.63812        40.12681        -1.14573
C         51.42351        39.39132        -1.47664
C         52.69649        41.10150        -0.37204
C         51.61818        41.95710         0.00209
C         51.54467        43.19711         0.66905
O         39.88440        37.81364         1.79815
O         34.46891        44.93994         1.00120
O         39.47293        28.75556         1.46781
O         44.02042        39.83663        -2.20409
O         33.16045        42.58227         2.11276
O         39.66806        35.73723        -1.18553
O         37.67635        40.71921         2.04408
O         36.26862        29.84907         1.07272
O         44.57917        33.63881         1.66041
O         40.60915        26.32586         0.91526
O         38.02047        33.17389         1.92535
O         34.19822        38.71464         2.42080
O         50.19649        32.74477         2.42983
O         48.73688        35.37986         1.67231
O         43.64391        29.28258        -1.01104
O         42.42754        41.61534         1.80838
O         43.11938        45.61829         1.71112
O         47.04061        40.08808        -2.47016
O         45.12300        43.97763         1.52529
O         33.90379        31.65773        -2.22827
O         41.62435        37.66036        -1.51713
O         51.30820        38.74659        -2.79228
O         45.77106        42.41246        -1.65047
O         39.57533        44.61420         2.04338
O         33.53351        33.37856         1.55662
H         33.94937        34.02681         2.17750
O         34.84188        35.58598         2.30492
H         35.47105        36.08010         2.87303
O         49.09155        31.35275        -0.67509
H         48.37866        30.79457        -1.07079
O         39.80214        27.43754        -2.49880
H         39.16278        27.24961        -3.21810
O         43.77214        34.73500        -1.77975
H         43.62631        35.54630        -2.31363
O         46.61207        29.44628         2.55121
H         45.81017        29.92809         2.87650
O         47.68153        31.93453         2.67270
H         48.01367        31.07313         3.02322
O         40.60405        32.83712         2.41937
H         39.80261        32.45192         2.84162
O         37.32681        45.47605         1.55828
H         38.10771        45.61988         2.14772
O         36.16877        39.63572        -1.13098
H         37.03524        39.40640        -1.55526
O         36.78793        34.05708        -1.41596
H         36.10696        34.70419        -1.72205
O         39.37036        35.46535         2.41769
H         39.00272        34.74022         2.96778
O         32.32313        40.29818         2.89023
H         32.77898        41.08914         3.26325
O         45.24794        31.52911        -1.25269
H         44.93024        30.63492        -1.51024
O         47.93692        28.97746        -0.83842
H         48.81118        28.64851        -1.14619
O         49.75817        36.39073        -2.56832
H         49.85424        37.00961        -3.32470
O         34.38413        35.54295        -1.32200
H         33.68992        35.16728        -1.90600
O         46.14900        46.15205        -1.33189
H         46.17124        47.10611        -1.55717
O         38.80021        39.43007        -1.24847
H         39.47547        38.80136        -1.59142
O         46.14122        37.64007        -2.70612
H         46.55203        38.35514        -3.24558
O         44.24610        30.94878         2.25192
H         44.25449        31.90051         2.52590
O         32.40558        36.84382         2.52288
H         32.70805        37.59410         3.08728
O         41.78546        43.87696         2.58844
H         41.05827        43.35633         2.98807
O         49.18960        29.55531         2.53256
H         48.90514        28.65136         2.79053
