         244
 CSIRO Nanostructure Databank - Neutral Graphene Oxide Data Set
C          1.18117         2.07451         0.40445
C          1.15733         3.42136         0.04183
C          2.40173         1.45448         0.66572
C          2.34146         4.16506        -0.04572
C          1.16602         6.40250         0.08080
C          1.18427         7.76028         0.12855
C          2.24091         5.57593        -0.59327
C          2.33961         8.55068        -0.20480
C          1.16641        10.70733         0.08758
C          1.18021        12.07638         0.12320
C          2.37312         9.95413        -0.07617
C          2.40034        12.81641         0.06111
C          1.22024        15.02393         0.14277
C          1.22585        16.42865         0.33638
C          2.38458        14.26159         0.07190
C          2.40440        17.14276         0.49118
C          2.46422        18.55282         0.77147
C          3.59985         2.17269         0.56958
C          3.58453         3.54125         0.21386
C          4.87359         1.42921         0.88283
C          4.84502         4.27946         0.08291
C          3.57801         6.32420        -0.64759
C          3.58229         7.84196        -0.55064
C          4.83997         5.64177        -0.29745
C          4.86042         8.54805        -0.35240
C          3.62493        10.67851        -0.13094
C          3.62781        12.10376        -0.01851
C          4.85626         9.96583        -0.23031
C          4.89767        12.80463         0.06852
C          3.67883        14.96004         0.02880
C          3.68270        16.45210         0.25768
C          4.92987        14.20088         0.22367
C          4.89888        17.05634         0.91800
C          3.65560        19.23194         0.80728
C          4.92967        18.55571         0.72589
C          6.14853         2.18829         0.59271
C          6.08673         3.61761         0.26556
C          7.32612         1.52586         0.71260
C          7.29066         4.31662         0.01430
C          6.05388         6.37904        -0.37648
C          6.05775         7.82049        -0.44623
C          7.29602         5.68551        -0.30256
C          7.31521         8.51690        -0.52893
C          6.11349        10.66383        -0.19999
C          6.12790        12.07691        -0.01146
C          7.33552         9.95837        -0.34704
C          7.37158        12.76834         0.06238
C          6.16532        14.89501         0.41454
C          6.18319        16.33830         0.58564
C          7.37368        14.16552         0.33244
C          7.36139        17.05819         0.57133
C          6.11889        19.22067         0.58748
C          7.37828        18.51147         0.51135
C          8.63135         2.27837         0.75258
C          8.54014         3.49358        -0.18131
C          9.88313         1.50218         0.42172
C          9.84768         4.30545        -0.13450
C          8.54076         6.38400        -0.64323
C          8.49579         7.81220        -0.79492
C          9.73765         5.67660        -0.73717
C          9.71944         8.64375        -1.16610
C          8.57814        10.65075        -0.23123
C          8.60674        12.03716        -0.04589
C          9.83095         9.78870        -0.12357
C          9.87662        12.76217        -0.06090
C          8.65834        14.84342         0.55853
C          8.65318        16.36203         0.64238
C          9.90541        14.16499         0.14543
C          9.88032        17.09346         0.34608
C          8.57618        19.18107         0.35071
C          9.84174        18.49067         0.24570
C         11.01041         2.08935        -0.11282
C         10.98336         3.47842        -0.73858
C         12.25350         1.39207        -0.12969
C         12.30410         4.22200        -0.68072
C         10.99855         6.31801        -1.16436
C         10.98758         7.80503        -1.33847
C         12.30647         5.62827        -0.97123
C         12.29109         8.54921        -1.38100
C         11.18106        10.57065        -0.15130
C         11.08211        12.07580        -0.30572
C         12.26619        10.00771        -1.06486
C         12.29105        12.79219        -0.45632
C         11.10857        14.89050         0.02799
C         11.18687        16.35434         0.44923
C         12.28639        14.19796        -0.30647
C         12.31808        17.14583        -0.16214
C         11.05441        19.21406         0.06748
C         12.26837        18.53485        -0.17698
C         13.47355         2.06395        -0.33949
C         13.47854         3.49762        -0.58334
C         14.69772         1.37263        -0.20527
C         14.78880         4.14738        -0.92674
C         13.53021         6.34181        -1.06031
C         13.57186         7.79931        -1.24325
C         14.76269         5.65269        -0.86286
C         14.75087         8.49326        -1.16927
C         13.55472        10.73734        -0.98493
C         13.55077        12.09182        -0.74864
C         14.78265         9.97773        -1.29354
C         14.80433        12.83641        -0.72839
C         13.52504        14.95321        -0.61289
C         13.52203        16.44293        -0.64339
C         14.81658        14.23248        -0.53741
C         14.87964        17.16678        -0.68829
C         13.50649        19.34342        -0.52787
C         14.78122        18.59990        -0.19998
C         15.93878         2.06205        -0.06452
C         15.95981         3.50198        -0.23683
C         17.11662         1.36698         0.21494
C         17.10152         4.24669         0.00081
C         15.99018         6.34198        -0.71820
C         16.10089         7.80918        -1.08254
C         17.13258         5.65435        -0.27916
C         17.03009         8.60148        -0.10443
C         16.08840        10.71897        -1.13262
C         16.04306        12.17007        -0.83733
C         17.28444         9.99423        -0.63197
C         17.25406        12.87971        -0.73302
C         16.01764        14.92673        -0.29277
C         15.89899        16.37296         0.16577
C         17.25238        14.24923        -0.36164
C         17.20878        17.11413         0.24847
C         15.86721        19.21362         0.32270
C         17.15643        18.53234         0.43014
C         18.33094         2.06108         0.62204
C         18.31049         3.60864         0.56358
C         19.64557         1.41293         0.60006
C         19.61379         4.30042         0.41962
C         18.35648         6.38643         0.11104
C         18.34330         7.87045         0.18561
C         19.63736         5.65739         0.15769
C         19.64033         8.60871         0.20693
C         18.45399        10.66822        -0.43361
C         18.48551        12.06064        -1.02277
C         19.63567        10.02777         0.18118
C         19.68866        12.99745         0.91630
C         18.55217        15.02341        -0.24788
C         18.42458        16.45683         0.20055
C         19.69695        14.34592         0.49786
C         19.65028        17.17405         0.36077
C         18.33993        19.24635         0.57516
C         19.60080        18.58877         0.53879
C         20.80443         2.14143         0.70368
C         20.82649         3.56513         0.63019
C         22.05581         4.30670         0.70802
C         20.92401         6.42107        -0.02457
C         20.83742         7.88579         0.40315
C         22.10783         5.64928         0.49281
C         21.97892         8.59960         0.79219
C         20.78077        10.72983         0.66697
C         20.85522        12.19973         0.77971
C         21.91784         9.97405         1.01007
C         22.07483        12.88227         0.58664
C         20.93841        15.02377         0.42155
C         20.91514        16.49363         0.34177
C         22.12687        14.27459         0.54769
C         22.08164        17.25463         0.41361
C         20.81905        19.31756         0.62810
C         22.03011        18.65828         0.53944
O         10.87049         6.94396        -2.51929
O         19.37193        12.42400        -1.78518
O          3.84210        15.93814        -1.08718
O         18.19037         7.10930         1.44915
O         13.31423        15.68853        -1.90510
O         15.58189        10.39951        -2.47988
O         12.11545         9.56788        -2.44701
O         18.12702         2.92570         1.81777
O          8.77096        15.50729         1.87570
O          3.62719         7.13490        -1.86670
O          4.88058         0.15727         0.21524
H          4.91346         0.32195        -0.74942
O         11.46757        16.29243         1.90501
H         10.63852        15.94573         2.31932
O         15.33804        17.22064        -2.04633
H         14.84401        16.52803        -2.54809
O          8.76044         2.66273         2.15210
H          9.64593         3.08359         2.25865
O         10.24989         4.56137         1.24957
H          9.60370         5.18762         1.64000
O          9.74545         9.16414         1.19139
H          8.81861         8.87129         1.32596
O         21.11612         6.51726        -1.49235
H         21.28763         5.61133        -1.82743
O         16.30682         8.77360         1.13487
H         16.66839         8.09739         1.76039
O         13.45753        20.61610         0.11594
H         13.48114        20.46929         1.08361
O          1.76490         5.40905        -1.96064
H          2.13618         6.16725        -2.47298
O          9.44994         9.27298        -2.43431
H          9.73646         8.64796        -3.13653
O         15.32498        16.33310         1.50426
H         15.99405        15.96035         2.11536
O         16.71067         7.85765        -2.39829
H         16.44635         8.71586        -2.81454
O         18.54922        12.48244         1.47886
H         18.71858        11.56902         1.78989
O         11.82948        10.40998         1.14481
H         11.12552        10.29426         1.82188
O         14.99172         3.83900        -2.37796
H         14.40206         4.43931        -2.88414
O         19.03116        15.13174        -1.62536
H         19.28697        14.22229        -1.92805
O          8.36483         2.91889        -1.49831
H          8.49643         3.62463        -2.16629
O          4.68429        16.82676         2.35153
H          5.45819        17.19007         2.83190
O         10.73741         3.32711        -2.16186
H         11.44473         2.75478        -2.52596
H          0.24471         1.50328         0.46671
H          0.19857         3.89578        -0.20731
H          2.44004         0.38944         0.93367
H          0.24812         5.88149         0.39059
H          0.29772         8.27679         0.52478
H          0.20211        10.18429         0.13013
H          0.22508        12.61137         0.20556
H          0.24044        14.52789         0.11358
H          0.26139        16.94686         0.44241
H          1.51775        19.10566         0.86766
H          4.86314         1.19529         1.98507
H          3.65562        20.32890         0.89504
H          7.31863         0.45765         0.97942
H          6.13240        20.31909         0.51392
H          9.96962         0.47993         0.82726
H          8.57664        20.27941         0.28899
H         12.27371         0.33289         0.17109
H         11.03873        20.31272         0.03834
H         14.67811         0.28354        -0.04984
H         13.49948        19.53981        -1.63601
H         17.13061         0.26889         0.14309
H         15.81901        20.28266         0.58384
H         19.68769         0.31812         0.50326
H         18.31004        20.34177         0.67504
H         21.76871         1.61404         0.75780
H         22.97261         3.76176         0.98029
H         23.07981         6.15902         0.55158
H         22.92851         8.07918         0.97424
H         22.80552        10.48622         1.40542
H         23.00637        12.30971         0.47903
H         23.10550        14.76891         0.48721
H         23.06551        16.76578         0.39141
H         20.78586        20.40978         0.75082
H         22.96991        19.22611         0.59188
