         349
 CSIRO Nanostructure Databank - Neutral Graphene Oxide Data Set
C          1.35843         2.07018         0.68930
C          1.27981         3.47440         0.65270
C          2.57967         1.41913         0.71257
C          2.44326         4.26954         0.67212
C          1.21971         6.44667         0.81091
C          1.22845         7.83604         0.87593
C          2.41881         5.72311         0.65306
C          2.41688         8.56468         0.70372
C          1.19623        10.83107         0.88329
C          1.20075        12.16233         0.68239
C          2.49767        10.06669         0.93328
C          2.43180        12.88436         0.35059
C          1.50565        15.11989         0.94503
C          1.50231        16.54912         0.84069
C          2.44006        14.34523         0.30722
C          2.49295        17.23511         0.16812
C          2.60311        18.68260         0.23387
C          3.79897         2.16921         0.71477
C          3.70532         3.61928         0.75409
C          5.03529         1.54809         0.56751
C          4.89579         4.38500         0.78397
C          3.64036         6.44876         0.48095
C          3.62348         7.87901         0.44816
C          4.88885         5.74635         0.50894
C          4.87736         8.61711         0.29808
C          3.54072        10.66163        -0.02783
C          3.55710        12.16974         0.02693
C          4.87747         9.99357         0.19918
C          4.80046        12.88981        -0.33115
C          3.36075        15.01315        -0.69214
C          3.58454        16.49523        -0.44420
C          4.65197        14.22659        -0.99726
C          4.70661        17.13937        -0.88462
C          3.66076        19.34180        -0.28403
C          4.75303        18.64370        -1.05683
C          6.29421         2.36964         0.40294
C          6.13314         3.64867         1.23203
C          7.57151         1.64404         0.73489
C          7.41182         4.49574         1.28669
C          6.18199         6.34908         0.00048
C          6.08759         7.87951        -0.24059
C          7.43574         5.86382         0.70115
C          7.39267         8.62366        -0.05540
C          6.18235        10.76825         0.30178
C          6.13485        12.21536        -0.22089
C          7.37522         9.98217        -0.18804
C          7.34721        12.79863        -0.87944
C          5.92776        14.91453        -1.38007
C          5.97156        16.36636        -1.01202
C          7.26207        14.15504        -1.58408
C          7.27824        17.06793        -0.89390
C          6.10738        19.25601        -0.80081
C          7.28540        18.55490        -0.81691
C          8.72269         2.24790         1.15679
C          8.71681         3.74516         1.43610
C          9.94321         1.43300         1.03709
C          9.93792         4.55839         1.20115
C          8.63583         6.52650         0.45637
C          8.66618         7.91977         0.03777
C          9.90762         5.88778         0.73062
C          9.87028         8.62638         0.01719
C          8.61385        10.63157        -0.73949
C          8.52939        12.12649        -0.90671
C          9.86750        10.14208        -0.02738
C          9.80247        12.75534        -1.35963
C          8.52350        14.98899        -1.38156
C          8.52711        16.33515        -1.22606
C          9.80021        14.25276        -1.58920
C          9.79289        17.14127        -1.43396
C          8.55195        19.18836        -0.62738
C          9.76313        18.50120        -0.76746
C         11.17209         1.78697         1.51716
C         11.17486         4.01051         1.53008
C         12.51615         1.30437         1.25744
C         12.38894         4.53293         1.06959
C         11.14358         6.57707         0.55145
C         11.14091         7.97598         0.15898
C         12.36821         5.88010         0.66666
C         12.34076         8.63958        -0.16605
C         11.12936        10.75367        -0.60617
C         11.09619        12.08741        -1.04736
C         12.34937        10.03994        -0.57986
C         12.31362        12.77782        -1.29088
C         11.07358        14.96344        -1.36067
C         11.04987        16.35063        -1.14356
C         12.29647        14.23592        -1.37059
C         12.24102        17.01189        -0.78351
C         10.96918        19.11977        -0.42361
C         12.22059        18.43434        -0.43632
C         13.59725         2.15532         1.06540
C         13.48329         3.60973         0.56965
C         14.89476         1.54412         0.97583
C         14.78820         4.35091         0.41205
C         13.68055         6.62535         0.66906
C         13.61084         7.94791        -0.07186
C         14.83921         5.73260         0.25876
C         14.77044         8.53689        -0.49486
C         13.55441        10.68748        -0.99909
C         13.55137        12.07015        -1.26857
C         14.75059         9.79922        -1.33668
C         14.76532        12.76279        -1.91178
C         13.51085        14.94518        -1.23412
C         13.46073        16.29877        -0.84760
C         14.82891        14.33742        -1.71390
C         14.68619        16.95523        -0.34843
C         13.38202        19.11119        -0.09911
C         14.65206        18.41202         0.06322
C         16.01660         2.15195         0.43441
C         15.90037         3.53045        -0.10628
C         17.30031         1.53948         0.49527
C         17.09474         4.18283        -0.74481
C         16.04359         6.37454        -0.13121
C         16.04258         7.85642        -0.15243
C         17.20401         5.66091        -0.56454
C         17.33614         8.57454        -0.25092
C         16.10422        10.54127        -1.35790
C         16.11539        12.06019        -1.60881
C         17.34610         9.94152        -0.83522
C         17.31204        12.78791        -1.14071
C         16.03270        14.87284        -0.94324
C         16.00050        16.34951        -0.71563
C         17.21125        14.19602        -0.80813
C         17.22605        17.10102        -0.30344
C         15.91463        19.14218         0.24160
C         17.12978        18.48273         0.25135
C         18.44458         2.11522        -0.05319
C         18.32910         3.28163        -1.00977
C         19.70581         1.49574         0.04916
C         19.62764         4.07222        -1.16749
C         18.41494         6.32382        -0.75844
C         18.62331         7.73979        -0.21377
C         19.61527         5.58062        -1.18462
C         19.71506         8.44264        -0.98058
C         18.53048        10.65119        -0.95369
C         18.52627        12.09050        -1.03265
C         19.82602         9.92388        -0.83305
C         19.79822        12.79565        -0.87771
C         18.41832        14.82258        -0.12460
C         18.45987        16.33658        -0.07296
C         19.72932        14.26178        -0.64684
C         19.58773        16.99457         0.36700
C         18.32582        19.10147         0.70298
C         19.54197        18.39724         0.77442
C         20.90371         2.10969        -0.36882
C         20.92864         3.46923        -0.84407
C         22.13221         1.40299        -0.27998
C         22.13677         4.20714        -0.87738
C         20.91370         6.27957        -1.19422
C         20.70825         7.66845        -1.49457
C         22.17201         5.65510        -1.09648
C         22.59565         8.70250        -1.56440
C         21.12227        10.69300        -0.98230
C         21.02335        12.17991        -0.98561
C         22.46563        10.05954        -1.22159
C         22.29813        12.94472        -0.81134
C         20.96677        14.98252        -0.19420
C         20.84659        16.28648         0.49487
C         22.24295        14.25089        -0.11016
C         21.94662        16.87419         1.06212
C         20.70002        18.98768         1.32007
C         21.91140        18.26854         1.48049
C         23.33760         2.06339        -0.44531
C         23.36155         3.50776        -0.60223
C         24.57021         1.32892        -0.45721
C         24.56158         4.21181        -0.42033
C         23.45484         6.37472        -0.94604
C         23.61006         7.84410        -1.07540
C         24.58175         5.63718        -0.49629
C         24.78137         8.55349        -0.68596
C         23.64827        10.72020        -0.85794
C         23.61651        12.19133        -0.69529
C         24.83828         9.96729        -0.71660
C         24.70309        12.81085         0.06848
C         23.32463        14.79095         0.53900
C         23.17861        16.05635         1.36835
C         24.60079        14.08677         0.59802
C         24.42235        16.91782         1.30992
C         23.07226        18.90314         1.95490
C         24.35450        18.26682         1.94220
C         25.77239         1.97802        -0.31602
C         25.75629         3.42625         0.11043
C         27.01283         1.28246        -0.40679
C         27.08741         4.09903        -0.08382
C         25.81791         6.33203        -0.01448
C         25.94742         7.81931        -0.14662
C         27.09115         5.54071         0.20388
C         27.31165         8.45099        -0.41502
C         26.10008        10.68974        -0.39874
C         26.00264        12.10276         0.08419
C         27.35203         9.93362        -0.10455
C         26.93523        12.61494         1.17012
C         25.80055        14.76578         1.06524
C         25.74043        16.21984         1.24763
C         27.04169        14.12725         1.13931
C         26.94254        16.89512         1.73092
C         25.49525        18.87349         2.40199
C         26.84048        18.19912         2.49044
C         28.23117         1.93387        -0.29566
C         28.26787         3.38144        -0.12672
C         29.46848         1.20354        -0.37320
C         29.56459         4.03996        -0.04327
C         28.42385         6.23250         0.29290
C         28.50727         7.70192         0.12918
C         29.65858         5.44114         0.10750
C         29.72241         8.31101         0.20620
C         28.51556        10.57687         0.15665
C         28.73171        11.95659         0.72002
C         29.85910         9.82449         0.36117
C         29.54282        13.01687         0.05161
C         28.25593        14.88903         1.14682
C         28.16554        16.27881         1.51644
C         29.47477        14.36325         0.55480
C         29.38664        17.11134         1.62146
C         27.96670        19.10332         2.07592
C         29.20127        18.58452         1.72464
C         30.67351         1.83709        -0.28521
C         30.75466         3.26652        -0.12235
C         32.00420         3.91564        -0.02917
C         30.91596         6.08997         0.13466
C         30.97267         7.55381         0.12971
C         32.08441         5.29589         0.08559
C         32.10960         8.21582        -0.29499
C         30.92456        10.31203        -0.60546
C         30.55829        12.69273        -0.86589
C         32.04583         9.56028        -0.79718
C         31.47050        13.65747        -1.32090
C         30.53363        15.27112         0.23630
C         30.62698        16.59248         0.91096
C         31.48635        14.91549        -0.72838
C         31.61804        17.59139         0.48690
C         30.29806        19.42747         1.40622
C         31.47122        18.92217         0.81458
O         14.57450        17.27465         1.06999
O         16.41840        11.11545        -2.68067
O         30.24587        10.06855         1.68766
O         25.10498        16.91040         0.03555
O         21.60844         8.21414        -2.40844
O         26.76541        12.05594         2.31060
O         11.19778         2.90134         2.36915
O         26.44928        11.83383        -1.28066
O         16.76217        17.08090        -1.72648
O          6.65924        16.47243         0.31493
O         20.61861        10.25394         0.36756
O          8.03074         4.30370         2.61488
O         30.47483        16.52853         2.38741
O         19.53569         4.78937        -2.44495
O         25.62345         7.23748         1.14085
O         16.65736         8.51988         1.06149
O         20.44787        15.07720        -1.59311
O         23.23240        12.90121        -1.93222
O          5.66801        13.11029         0.86550
O          9.80767        13.32124        -2.71120
O          5.72525         8.07595        -1.62008
O          4.98552        14.44540        -2.40607
O         30.74021        11.42664        -1.42060
O         15.98380         3.72247        -1.58064
O         27.69337         5.82977         1.52202
O          6.36479         2.73186        -1.00430
H          6.58278         1.93019        -1.52305
O          9.83315        17.43805        -2.86972
H          9.87528        16.58317        -3.35028
O          3.03378        10.24747         2.27549
H          2.39832         9.86057         2.91268
O          2.56773        14.99770        -1.92151
H          3.20603        15.04732        -2.67090
O          5.81072         3.19893         2.57192
H          6.59003         3.41728         3.14142
O         14.50733         9.33353        -2.69616
H         14.24239        10.10754        -3.23782
O          6.32307         5.73353        -1.31393
H          6.06756         6.46715        -1.95074
O         13.05661         3.40326        -0.83558
H         13.86200         3.26807        -1.38489
O         19.03613         7.56820         1.16245
H         18.24749         7.78589         1.71760
O         23.06854        15.63668         2.76134
H         22.23237        15.13760         2.87226
O         13.92446         6.94679         2.07748
H         13.22647         7.57085         2.36718
O          7.32218        13.84568        -3.00197
H          6.40545        13.64579        -3.30128
O          8.75274        10.13936        -2.10762
H          7.86158        10.07286        -2.51136
O         15.00837        14.94176        -3.01614
H         14.71691        14.26842        -3.68088
O         25.57825         3.39178         1.57154
H         25.86439         4.26022         1.93214
O         27.02930        17.87261         3.91649
H         27.93649        17.51338         4.02204
O         27.42807         8.32067        -1.87175
H         28.16177         8.89343        -2.18086
O          6.42211        10.85060         1.74145
H          6.00917        11.69344         2.04836
O          4.47620        18.90035        -2.48328
H          3.54954        18.62698        -2.65342
O         29.23378        11.76989         1.96718
H         28.58004        11.26517         2.51494
O         18.12212         2.63162        -2.28615
H         18.22238         3.32435        -2.97701
O          3.17733        10.31942        -1.40063
H          3.73817         9.56387        -1.69152
O          9.80143        10.60584         1.35030
H         10.51476        10.16623         1.85752
O         14.50118        12.55374        -3.32737
H         15.18959        11.92471        -3.65996
O         18.36387        14.37086         1.26975
H         17.52643        14.69067         1.66711
H          0.42905         1.48359         0.67711
H          0.28775         3.94416         0.60153
H          2.62425         0.32049         0.70404
H          0.26675         5.91565         0.94019
H          0.28010         8.35973         1.05974
H          0.25133        10.32382         1.12985
H          0.26027        12.73090         0.72397
H          0.75736        14.65092         1.60070
H          0.72605        17.11269         1.37885
H          1.80772        19.23620         0.75654
H          5.07856         0.45454         0.43141
H          3.71611        20.43896        -0.21472
H          7.61975         0.57972         0.44750
H          6.14475        20.35321        -0.70784
H          9.85435         0.52580         0.42063
H          8.57115        20.24749        -0.32543
H         12.70580         0.21790         1.25564
H         10.94687        20.15467        -0.04782
H         14.99504         0.51431         1.35407
H         13.35238        20.19948         0.05980
H         17.39643         0.59211         1.04808
H         15.86800        20.20910         0.50681
H         19.77233         0.51119         0.53697
H         18.27959        20.13421         1.07961
H         22.12037         0.32661        -0.05700
H         20.66590        20.04509         1.62277
H         24.53704         0.23892        -0.60366
H         23.00659        19.94793         2.29488
H         26.99265         0.19816        -0.59556
H         25.42194        19.87761         2.84865
H         29.42155         0.11204        -0.49966
H         27.81807        20.19399         2.07999
H         31.60970         1.26264        -0.34076
H         32.92450         3.31474        -0.06045
H         33.07362         5.76826         0.15468
H         33.04121         7.65816        -0.46127
H         32.85666         9.92474        -1.44223
H         32.23066        13.37509        -2.05984
H         32.26910        15.62547        -1.02332
H         32.50992        17.27543        -0.07070
H         30.19725        20.50999         1.56761
H         32.26551        19.63000         0.53732
