         480
 CSIRO Nanostructure Databank - Neutral Graphene Oxide Data Set
C         38.95920        50.60119         4.47195
C         38.56672        51.37601         5.50410
C         39.54022        53.38060         4.50472
C         38.84309        52.79233         5.51618
C         41.11286        48.97314         3.32873
C         40.90952        50.33597         2.87655
C         39.66828        51.14890         3.26014
C         40.92171        53.17621         2.45852
C         40.06945        52.62003         3.39634
C         41.26813        54.58331         2.44547
C         43.07672        48.65558         1.90035
C         42.11290        48.16680         2.85402
C         43.01844        50.11876         1.69599
C         41.81521        50.90318         2.02151
C         42.68862        52.91819         0.64077
C         41.50627        52.27098         1.38468
C         42.68062        54.42071         0.41255
C         42.04204        55.18412         1.50583
C         45.36688        45.80836         1.21859
C         44.36696        46.56385         1.73385
C         44.82682        48.42315         0.06920
C         44.11848        47.92502         1.33555
C         44.98836        49.95058         0.02673
C         44.10872        50.75035         0.94235
C         45.29490        52.79740         0.41933
C         43.95733        52.16433         0.50056
C         44.81022        54.43133        -1.32433
C         43.65920        55.10670        -0.55818
C         45.00445        57.17777        -0.83256
C         43.84560        56.57154        -0.47185
C         48.04893        44.52841         1.00980
C         47.69087        45.65031         0.11105
C         46.32234        46.29431         0.20485
C         47.35486        48.43514        -0.90030
C         46.14765        47.70267        -0.32365
C         47.32443        49.94418        -1.10688
C         46.12992        50.70834        -0.59726
C         47.57665        52.91190        -0.45305
C         46.30672        52.14766        -0.22773
C         47.41796        54.31439        -1.05737
C         46.20153        55.03238        -1.11017
C         47.46180        57.15519        -1.30353
C         46.22449        56.45403        -1.13099
C         47.50944        58.56584        -1.45486
C         50.28322        44.42518         0.03713
C         49.27077        43.95664         0.96472
C         50.06568        45.73532        -0.58147
C         48.83198        46.41375        -0.46500
C         49.86363        48.47397        -1.28098
C         48.70423        47.77095        -0.87500
C         49.85865        49.91434        -1.78820
C         48.58884        50.69480        -1.42191
C         49.87964        52.83265        -1.23279
C         48.69628        52.14277        -1.09852
C         49.90841        54.27982        -1.20877
C         48.66742        55.00492        -1.20216
C         49.93855        57.11516        -1.43617
C         48.68842        56.42364        -1.34350
C         49.94818        58.54463        -1.47916
C         48.71768        59.23301        -1.54036
C         52.82085        41.68562         0.00332
C         51.81298        42.47805         0.44279
C         52.30792        44.18936        -1.37757
C         51.43329        43.70153        -0.23079
C         52.41412        45.68400        -1.35569
C         51.17447        46.40008        -1.17789
C         52.29439        48.50560        -1.88879
C         51.07963        47.77826        -1.45737
C         52.31901        49.96727        -1.64757
C         51.15879        50.64106        -1.46840
C         52.40149        52.85387        -1.41283
C         51.16613        52.08567        -1.02560
C         52.40903        54.22507        -1.45010
C         51.14678        54.97625        -1.37264
C         52.43951        57.11820        -1.80330
C         51.16165        56.37928        -1.46015
C         52.42989        58.56971        -1.38258
C         51.20788        59.26689        -1.36546
C         52.40692        61.35633        -1.00628
C         51.22152        60.67161        -1.15308
C         54.95600        39.83316        -1.18012
C         54.80568        41.23402        -1.56182
C         53.50044        41.97196        -1.31786
C         54.84368        44.16016        -1.47184
C         53.63328        43.47835        -1.43345
C         54.87392        45.61519        -1.41859
C         53.62125        46.32860        -1.52696
C         54.85911        48.51777        -1.54484
C         53.62162        47.77138        -1.84369
C         54.87729        49.91196        -1.53210
C         53.62948        50.67375        -1.93866
C         54.93562        52.82660        -1.75825
C         53.68387        52.06697        -1.30475
C         54.88623        54.25572        -1.28411
C         53.68586        54.95599        -1.40524
C         54.88590        57.09203        -1.22270
C         53.69718        56.39365        -1.39492
C         54.90788        58.54580        -1.13848
C         53.65379        59.26112        -1.18098
C         54.89687        61.38476        -0.86360
C         53.65074        60.67555        -1.01546
C         54.93381        62.80366        -0.81506
C         57.35256        39.87859        -1.71575
C         56.14266        39.18447        -1.38292
C         57.36352        41.26794        -1.74161
C         56.10176        42.01593        -1.80685
C         57.32808        44.17297        -1.59480
C         56.10695        43.47300        -1.59337
C         57.34853        45.60472        -1.28333
C         56.07780        46.31381        -1.19718
C         57.01593        48.54439        -0.52580
C         55.99237        47.77346        -1.09169
C         57.23027        49.92335        -0.76480
C         56.08034        50.63836        -1.22566
C         57.32094        52.72854        -0.91373
C         56.14302        52.05517        -1.27254
C         57.31063        54.17303        -0.89160
C         56.13031        54.91342        -1.03232
C         57.29865        57.05810        -0.75306
C         56.13022        56.37362        -0.98865
C         57.42727        58.52567        -1.01844
C         56.10262        59.24034        -0.91847
C         57.35881        61.35977        -0.56671
C         56.11831        60.66209        -0.78518
C         57.35291        62.77686        -0.52406
C         56.12486        63.47592        -0.67518
C         59.77935        37.08369        -1.13200
C         58.67137        37.69006        -1.61773
C         59.88798        39.89387        -1.82858
C         58.60591        39.11439        -2.12046
C         59.83218        41.35609        -1.68421
C         58.58964        42.03574        -1.76892
C         59.84013        44.14237        -2.17507
C         58.55245        43.44948        -1.78090
C         59.79653        45.63625        -1.88288
C         58.61519        46.22877        -1.19780
C         59.86594        48.39772        -0.82655
C         58.82217        47.49979        -0.58423
C         59.78587        49.83098        -0.58664
C         58.51020        50.57306        -0.57793
C         59.75206        52.73104        -0.33823
C         58.52988        51.99342        -0.62196
C         59.76727        54.12600        -0.24801
C         58.62539        54.90308        -0.84644
C         59.69236        57.02385         0.17138
C         58.47985        56.29703        -0.29145
C         59.73224        58.50562         0.07299
C         58.59187        59.21249        -0.32845
C         59.77336        61.35131         0.02272
C         58.58218        60.63746        -0.31618
C         59.75074        62.76558         0.04454
C         58.58062        63.49416        -0.26492
C         59.84217        65.61014        -0.15423
C         58.64739        64.91267        -0.34051
C         62.17817        35.72563         0.01144
C         62.13004        37.14578        -0.29153
C         61.02657        37.76853        -0.86555
C         62.16483        40.02968        -0.65308
C         61.11122        39.19490        -1.26662
C         62.19632        41.42452        -0.83422
C         61.03241        42.09478        -1.40689
C         62.44211        44.09725        -1.66281
C         61.06147        43.47350        -1.56518
C         62.39721        45.61628        -1.94062
C         61.09382        46.37551        -1.83288
C         62.40527        48.47123        -1.11924
C         61.14433        47.70460        -1.13494
C         62.26745        49.95683        -1.00187
C         60.97995        50.58193        -0.61200
C         62.19503        52.69281        -0.07990
C         61.00580        51.99372        -0.30856
C         62.15397        54.06149         0.47771
C         60.93548        54.86187         0.19257
C         62.11315        57.00356         0.83186
C         60.94326        56.24295         0.33551
C         62.16272        58.47097         0.63032
C         60.96133        59.19054         0.36004
C         62.22095        61.29755         0.52701
C         60.99794        60.62141         0.30409
C         62.25408        62.79345         0.29163
C         60.93878        63.50059         0.61243
C         62.26479        65.66540         0.42235
C         61.02208        64.96659         0.22694
C         62.36795        67.07310         0.24596
C         64.61251        35.84475         0.44268
C         63.32937        35.11158         0.36917
C         64.50928        37.32590         0.46623
C         63.30136        37.92801         0.07162
C         64.19083        40.12261         0.70156
C         63.20971        39.35623         0.03030
C         64.12013        41.54551         0.59479
C         63.26428        42.20815        -0.26970
C         64.77606        44.38690        -0.68319
C         63.35833        43.74071        -0.46368
C         64.85753        45.66878        -1.23557
C         63.67358        46.38180        -1.80645
C         64.88029        48.55416        -1.23348
C         63.64638        47.93074        -1.83931
C         64.79111        49.90997        -0.68276
C         63.54653        50.71564        -0.87994
C         64.79095        52.81693        -0.00480
C         63.51652        52.13219        -0.40397
C         64.76046        54.14899         0.62950
C         63.44605        54.77871         0.87144
C         64.69066        57.02553         0.96519
C         63.42212        56.26715         1.08657
C         64.64700        58.42589         0.86600
C         63.40357        59.14508         0.77101
C         64.65859        61.29405         1.05265
C         63.42815        60.59164         0.75584
C         64.59181        62.73215         1.37865
C         63.34385        63.50684         1.05568
C         64.63605        65.64551         1.13159
C         63.42503        64.96594         0.86301
C         64.69337        67.06615         0.99563
C         63.53725        67.74549         0.53591
C         66.91489        33.28184         2.11332
C         65.83073        33.83227         1.54558
C         67.01653        36.06893         1.41389
C         65.86688        35.20952         1.00285
C         67.01204        37.50304         0.90860
C         65.59568        38.10547         0.97679
C         67.29934        40.60552         1.26086
C         65.32126        39.44506         1.24257
C         67.30579        41.90452         0.71994
C         66.11838        42.67815         0.59704
C         67.30704        44.37890        -0.61457
C         66.03047        43.79202        -0.24698
C         67.32117        45.74946        -1.01451
C         66.09637        46.41067        -1.21865
C         67.31958        48.56502        -0.92228
C         66.07702        47.85649        -1.16368
C         67.32899        49.93641        -0.60368
C         66.07147        50.62463        -0.29278
C         67.24724        52.73356         0.21900
C         66.08232        52.08685        -0.04613
C         67.26247        54.09736         0.91652
C         65.94023        54.85326         0.78770
C         67.15246        57.00830         0.82995
C         65.92244        56.28183         0.93242
C         67.10646        58.44282         1.29129
C         65.94517        59.19894         0.64081
C         67.09913        61.34174         1.49422
C         65.90316        60.64754         1.11184
C         67.03951        62.75467         1.73014
C         65.83830        63.49466         1.51571
C         67.06691        65.63964         1.61607
C         65.83822        64.90349         1.45689
C         67.08041        67.03981         1.65028
C         65.90762        67.78161         1.33278
C         67.18882        69.86813         1.54398
C         65.97901        69.19019         1.31237
C         69.31372        32.12719         3.63141
C         69.35620        33.45956         2.97798
C         68.18312        34.03166         2.22980
C         69.38338        36.24672         2.08689
C         68.13128        35.50306         1.97332
C         69.44444        37.59410         1.57965
C         68.24917        38.30383         1.33330
C         69.64741        40.30458         0.76016
C         68.37455        39.71113         1.10165
C         69.71510        41.66177         0.35173
C         68.53663        42.41002         0.18746
C         69.80410        44.36988        -0.63376
C         68.53576        43.72855        -0.36327
C         69.80927        45.76084        -0.96975
C         68.57100        46.45930        -1.05866
C         69.79678        48.60602        -1.01586
C         68.56410        47.87797        -1.03117
C         69.78097        50.02114        -0.79095
C         68.54634        50.64307        -0.48849
C         69.80922        52.81310        -0.11059
C         68.52820        52.00312         0.06401
C         69.71182        54.31128        -0.03337
C         68.47253        54.94281         0.51038
C         69.46742        57.18937        -0.03838
C         68.32295        56.40920         0.40514
C         69.47592        58.58893         0.19168
C         68.43559        59.16746         1.09234
C         69.61850        61.37237         0.81854
C         68.43260        60.63470         1.35311
C         69.94882        62.59766         1.39655
C         68.18052        63.55209         2.07759
C         69.58872        65.59551         1.71203
C         68.29179        64.91370         1.83165
C         69.60020        67.00545         1.86535
C         68.30914        67.72819         2.20381
C         69.60948        69.90681         2.09681
C         68.35805        69.20518         1.88854
C         69.65061        71.30375         2.31275
C         71.56706        32.51427         4.48401
C         70.37878        31.68962         4.33633
C         71.59041        33.79807         4.07180
C         70.33288        34.46615         3.56910
C         71.78252        36.29910         2.48673
C         70.52391        35.66163         2.65039
C         71.89439        37.49849         1.81626
C         70.73510        38.22003         1.41044
C         72.04615        40.06739         0.26175
C         70.82857        39.51605         0.83558
C         72.13350        41.36474        -0.12030
C         71.05793        42.34558         0.28185
C         72.22788        44.37800        -0.67264
C         71.02425        43.68712        -0.43120
C         72.24435        45.72537        -1.01402
C         71.04448        46.47300        -1.09898
C         72.21312        48.69993        -1.33413
C         71.02876        47.91480        -1.18197
C         72.19035        50.07350        -1.26016
C         70.99879        50.79213        -0.91807
C         72.02119        53.09269        -1.18658
C         70.96073        52.20093        -0.78381
C         71.87208        54.44430        -1.24586
C         70.51722        55.08883        -1.06057
C         71.47386        57.40846        -1.38599
C         70.51726        56.58322        -0.78262
C         71.43391        58.79229        -1.23236
C         70.45656        59.40475        -0.42387
C         71.50482        61.71469        -0.64699
C         70.51283        60.84252        -0.13381
C         71.60025        63.04892        -0.24670
C         70.81480        63.53804         0.82131
C         71.96163        65.70041         1.13436
C         70.78499        64.93950         1.27224
C         71.99002        67.05399         1.43302
C         70.80791        67.73357         1.79415
C         72.03838        69.85713         2.30916
C         70.83022        69.17447         2.07890
C         72.05523        71.23189         2.53700
C         70.85753        71.95773         2.53109
O         46.37964        47.75951        -1.75844
O         44.90930        50.42859        -1.35144
O         69.70246        54.75090         1.34401
O         60.26711        46.43591        -3.04165
O         57.87072        47.89414         0.36408
O         64.24070        52.99189        -1.38944
O         63.21092        45.89269        -3.12162
O         44.62296        53.64141        -2.22420
O         65.01260        42.30097         1.36474
O         60.97143        39.43538        -2.71994
O         69.47288        52.18420         1.16837
O         46.61473        45.31296        -0.83580
O         58.66761        56.50052         1.14163
O         66.20024        40.19950         2.01662
O         52.95687        48.08616        -3.12861
O         65.23881        49.94861         0.72354
O         55.25194        41.54432        -2.92190
O         42.28910        54.77403        -0.94727
O         62.89752        50.59966        -2.17340
O         68.90763        59.68688         2.39019
O         65.63697        35.27219        -0.47158
O         69.30445        62.90780         2.60130
O         62.63992        54.07265         1.87324
O         62.03796        47.70234         0.06033
O         63.56740        63.04799         2.40922
O         47.58162        50.39841        -2.47254
O         62.56480        56.64821         2.19268
O         43.01495        52.24927        -0.61526
O         44.32289        50.65421         2.37382
O         69.32319        33.39527         1.52321
O         63.59754        48.35648        -3.21229
H         63.31452        47.57900        -3.75200
O         67.24872        37.41723        -0.53816
H         66.73962        36.63199        -0.87141
O         48.05807        53.22475         0.92919
H         49.01335        53.45526         0.87442
O         51.57393        43.89225        -2.60673
H         51.59304        42.90597        -2.70665
O         71.39063        42.71214         1.67849
H         71.37986        41.88326         2.20340
O         66.79638        58.37802         2.69664
H         67.56349        58.76416         3.18542
O         49.89976        49.80874        -3.23578
H         48.96525        49.72181        -3.54215
O         52.60543        41.47057        -2.36573
H         53.15492        41.40547        -3.18026
O         66.19354        59.22327        -0.79464
H         65.44817        59.69349        -1.22420
O         62.55391        62.98675        -1.11757
H         61.81282        62.61080        -1.63849
O         69.64874        34.99454         4.75596
H         70.27696        35.57854         5.23039
O         38.71467        51.02347         2.17303
H         39.14445        51.37783         1.35352
O         68.16144        67.64862         3.67252
H         68.93789        68.10065         4.06651
O         69.76726        54.89272        -2.30666
H         70.26211        55.33311        -3.02931
O         60.78091        63.45877         2.05997
H         59.93920        63.90614         2.28608
O         52.48549        57.14434        -3.27925
H         51.65684        57.56790        -3.58964
O         63.08210        43.45761        -2.78717
H         62.50784        43.57689        -3.57355
O         40.48651        52.04898         0.37030
H         40.95584        51.84370        -0.47123
O         53.61850        50.77216        -3.39050
H         53.41874        49.86283        -3.73074
O         67.39391        53.79444         2.32218
H         68.33372        53.52795         2.46306
O         57.80753        58.60433        -2.45133
H         57.12203        58.12429        -2.96471
O         45.48501        53.93014         1.15664
H         46.46335        54.04265         1.28254
O         43.87763        48.09024        -0.96471
H         44.26966        48.39946        -1.81419
O         51.20524        52.00218         0.45928
H         52.13143        51.72838         0.68857
O         59.98425        43.96551        -3.61827
H         60.16814        44.86014        -3.99614
O         59.01264        55.11793        -2.25290
H         58.97225        54.25197        -2.71238
O         58.50757        38.99690        -3.56930
H         59.43000        38.90371        -3.90142
O         62.80745        44.36761         0.70945
H         63.37744        44.13686         1.47400
O         55.02898        52.95729        -3.19702
H         54.67671        52.13247        -3.61388
O         53.86262        51.81413         0.13322
H         54.12954        52.66214         0.55018
H         38.66628        49.54146         4.44750
H         38.00675        50.94209         6.34518
H         39.73577        54.46071         4.55778
H         38.47599        53.39691         6.35723
H         40.39127        48.54549         4.03862
H         40.83219        55.22492         3.22430
H         42.14520        47.11715         3.17834
H         42.18793        56.27253         1.54985
H         45.45122        44.75897         1.53114
H         43.71620        46.11632         2.49824
H         45.04214        58.27496        -0.80199
H         42.96970        57.18668        -0.21908
H         47.28063        44.10755         1.67216
H         46.58212        59.15032        -1.50708
H         49.48817        43.08799         1.60212
H         48.70216        60.32550        -1.64641
H         53.09958        40.78193         0.56610
H         51.28317        42.20010         1.36721
H         52.36976        62.44291        -0.85646
H         50.28012        61.23362        -1.10602
H         54.09448        39.29775        -0.75633
H         54.00804        63.38625        -0.90331
H         56.19217        38.10506        -1.18287
H         56.10811        64.57276        -0.64517
H         59.71793        36.01213        -0.89154
H         57.79017        37.06284        -1.81752
H         59.83675        66.69393        -0.33636
H         57.75851        65.48784        -0.62837
H         61.26405        35.12408        -0.08819
H         61.50193        67.64937        -0.10567
H         63.33526        34.02342         0.52211
H         63.56106        68.83464         0.39757
H         66.88020        32.24061         2.46417
H         64.91142        33.24068         1.43289
H         67.20100        70.95879         1.40351
H         65.09350        69.78784         1.05991
H         68.45172        31.46677         3.45936
H         68.71608        71.88078         2.33843
H         72.46224        32.05907         4.93213
H         70.37972        30.68468         4.78144
H         72.49786        34.40075         4.22458
H         72.69367        35.81713         2.86655
H         72.88663        37.94939         1.67584
H         72.88662        39.38426         0.06681
H         73.05704        41.73456        -0.59013
H         73.18596        43.85794        -0.52926
H         73.21391        46.22712        -1.13806
H         73.17207        48.19816        -1.52543
H         73.13060        50.62761        -1.38995
H         72.99670        52.65731        -1.45114
H         72.73216        55.06342        -1.53901
H         72.26941        56.96887        -2.00427
H         72.19868        59.40238        -1.73068
H         72.19866        61.35381        -1.41835
H         72.31665        63.71163        -0.75267
H         72.88467        65.20221         0.80639
H         72.93823        67.59987         1.34159
H         72.98878        69.30655         2.32330
H         73.00918        71.74461         2.72150
H         70.86983        73.04155         2.71081
