         651
 CSIRO Nanostructure Databank - Neutral Graphene Oxide Data Set
C          6.08409        31.88270         0.76296
C          6.07696        33.22981         0.64967
C          8.52632        27.65535         0.99117
C          8.44939        29.06611         0.75077
C          7.23744        29.64508         0.52604
C          8.41558        31.76025        -0.13716
C          7.09582        31.04135         0.01376
C          8.28012        33.16598        -0.56663
C          7.13034        33.94838        -0.04195
C          8.25762        36.06967        -0.60211
C          7.11176        35.31693        -0.16511
C          8.24502        37.44467        -0.65032
C         10.95665        23.40775         1.15588
C         10.94130        24.81400         1.03057
C          9.76764        25.56042         1.10210
C         10.96118        27.73525         0.67479
C          9.73533        26.97910         0.94826
C         10.96813        29.08483         0.50046
C          9.72410        29.88300         0.80942
C         10.88729        31.85961        -0.34855
C          9.63932        31.18007         0.03410
C         10.82181        33.15736        -0.84972
C          9.53988        33.88551        -0.93131
C         10.78533        36.13737        -1.04921
C          9.55513        35.36336        -0.72397
C         10.62618        37.58010        -1.48149
C          9.38017        38.26929        -0.98032
C         10.19182        40.63984        -1.00793
C          9.27610        39.60612        -0.62181
C         10.51321        41.79439        -0.32480
C         13.31914        19.08134         1.40439
C         13.30462        20.47891         1.23585
C         12.13214        21.25571         1.26005
C         13.39354        23.34411         0.73285
C         12.15013        22.66282         1.08068
C         13.42635        24.74026         0.48793
C         12.23302        25.52468         0.87145
C         13.41659        27.65989         0.04878
C         12.24573        27.00075         0.67124
C         13.43760        29.01501        -0.08841
C         12.27871        29.85425         0.41665
C         13.33739        31.80888        -0.77613
C         12.15890        31.18292        -0.30611
C         13.31914        33.17372        -1.20977
C         12.01810        33.84120        -1.35024
C         13.27674        36.06181        -1.54535
C         11.98392        35.36698        -1.55839
C         13.22459        37.58000        -1.40947
C         11.92159        38.24934        -1.89398
C         13.17897        40.42652        -2.16314
C         11.99522        39.71467        -2.09302
C         13.23659        41.84846        -2.05006
C         11.54996        42.69460        -0.76997
C         13.29974        44.47526        -0.45248
C         12.16686        43.66712        -0.02645
C         13.41690        45.70819         0.13890
C         15.69387        14.76294         1.76866
C         15.67180        16.10948         1.44557
C         14.48818        16.89375         1.53433
C         15.76632        18.90990         0.99565
C         14.49722        18.28390         1.31083
C         15.82279        20.38097         0.90713
C         14.58606        21.19583         1.04394
C         15.76107        23.24315         0.15360
C         14.58107        22.60413         0.57421
C         15.79176        24.64240        -0.10459
C         14.59178        25.38750         0.05320
C         15.89295        27.53730        -0.23919
C         14.56448        26.81255        -0.47260
C         15.83490        28.96633        -0.75914
C         14.63937        29.69620        -0.58030
C         15.80637        31.77328        -1.19956
C         14.60069        31.08944        -0.85059
C         15.78188        33.20842        -1.39235
C         14.51784        33.89510        -1.42310
C         15.75080        36.08412        -1.44783
C         14.46131        35.34898        -1.53661
C         15.76005        37.57406        -1.71230
C         14.45768        38.22038        -2.04460
C         15.69207        40.49829        -2.45173
C         14.43611        39.68234        -2.37110
C         15.65574        41.90993        -2.02319
C         14.42587        42.55979        -1.78378
C         15.69721        44.69789        -1.19952
C         14.34398        44.05962        -1.49445
C         15.69553        46.02744        -0.68142
C         14.54305        46.58699        -0.06596
C         15.67580        48.71442         0.52763
C         14.53078        47.88414         0.49574
C         15.72993        49.98541         1.10700
C         18.08629        10.44625         1.54933
C         18.12512        11.79919         2.24622
C         16.90914        12.64670         1.95647
C         18.19092        14.76323         1.79954
C         16.93010        14.01440         1.82952
C         18.20017        16.08394         1.41077
C         16.93188        16.70814         0.87880
C         18.20153        18.88281         0.62016
C         16.94491        18.20598         0.86920
C         18.24384        20.23940         0.27101
C         16.96659        20.96084         0.15183
C         18.23538        23.10808        -0.36816
C         16.95294        22.42488        -0.15728
C         18.18978        24.48522        -0.67464
C         17.02491        25.28291        -0.52368
C         18.19465        27.36328        -1.23583
C         17.07690        26.72342        -0.73182
C         18.19701        28.81479        -1.60351
C         17.00604        29.62640        -1.19653
C         18.35790        31.74405        -1.35038
C         17.01716        31.02730        -1.34855
C         18.24557        33.20997        -1.70931
C         17.01626        33.90880        -1.61184
C         18.17455        36.09645        -1.86402
C         17.01666        35.36222        -1.65835
C         18.21613        37.55184        -1.94041
C         17.00968        38.25924        -2.06335
C         18.20048        40.46654        -1.92897
C         17.00667        39.70246        -2.38337
C         18.23125        41.94553        -2.17481
C         16.90978        42.69183        -2.06479
C         18.18758        44.69331        -1.18234
C         16.90969        44.08231        -1.54185
C         18.22393        46.08634        -0.76100
C         16.94034        46.81274        -0.69254
C         18.19336        48.72780         0.52077
C         16.92213        48.18174        -0.07992
C         18.11403        50.23182         0.58769
C         16.92536        50.79825         1.03855
C         18.08217        52.93429         1.51522
C         16.93169        52.16815         1.50781
C         18.14762        54.21967         2.13595
C         20.77894         6.34020         0.96910
C         20.66140         7.62123         1.54691
C         19.39996         8.25379         1.38149
C         20.84590        10.54273         2.55814
C         18.98703         9.49689         1.95214
C         20.74816        11.86398         2.14185
C         19.42636        12.56300         1.81386
C         20.73637        14.75813         2.03170
C         19.41722        14.02656         2.32665
C         20.71286        16.18797         1.57305
C         19.42460        16.84659         1.25691
C         20.68250        18.78133         0.21194
C         19.42930        18.14224         0.77039
C         20.69483        20.29246         0.24378
C         19.46620        20.97133         0.08987
C         20.71214        23.06016        -0.27607
C         19.45907        22.37942        -0.21274
C         20.72873        24.41301        -0.87591
C         19.42435        25.10312        -1.17138
C         20.71468        27.24140        -1.74795
C         19.40029        26.55897        -1.54808
C         20.75514        28.71508        -1.98067
C         19.47604        29.51547        -2.07593
C         20.65879        31.79232        -2.30544
C         19.53907        31.02454        -2.00925
C         20.66737        33.23495        -2.14556
C         19.44398        33.91371        -1.97562
C         20.72799        36.12086        -2.24719
C         19.40373        35.36584        -2.19398
C         20.72448        37.57314        -1.94502
C         19.47544        38.24336        -1.93584
C         20.74582        40.43953        -1.63348
C         19.47206        39.68898        -1.68042
C         20.71385        41.80152        -1.50647
C         19.54857        42.68084        -1.93496
C         20.58209        44.57251        -0.56471
C         19.37355        43.97009        -1.16317
C         20.66720        46.03342        -0.43476
C         19.41541        46.75569        -0.50784
C         20.62056        48.84146        -0.01588
C         19.44627        48.15963        -0.10443
C         20.59699        50.20897         0.65234
C         19.33640        51.01921         0.22648
C         20.56717        52.87727         1.61161
C         19.32952        52.50980         0.74833
C         20.56733        54.37357         1.86797
C         19.33997        54.95628         2.25453
C         20.64031        57.01943         3.03242
C         19.28342        56.37645         2.79568
C         20.77120        58.16168         3.79677
C         23.23657         3.61303         0.22703
C         22.02453         4.29670         0.36499
C         23.23011         6.24692         1.23928
C         21.99401         5.61231         0.87600
C         23.22033         7.56810         1.75557
C         21.92846         8.19809         2.11584
C         23.31108        10.38287         2.18585
C         22.06042         9.72657         2.52023
C         23.21554        11.75470         1.54677
C         21.96540        12.56418         1.87036
C         23.17077        14.67662         1.46690
C         21.98448        13.97555         1.77738
C         23.20348        16.09036         1.19954
C         21.96036        16.83420         1.10838
C         23.16731        18.92543         0.66573
C         21.95662        18.15178         0.69743
C         23.15507        20.29023         0.47796
C         21.91612        20.99959         0.25050
C         23.20068        23.13174        -0.09247
C         21.92111        22.40799         0.01315
C         23.19609        24.46461        -0.57578
C         21.94205        25.28364        -0.61934
C         23.19529        27.11881        -1.82184
C         22.01018        26.54364        -1.46988
C         23.22176        28.46039        -2.46119
C         21.89043        29.06282        -2.64959
C         23.17629        31.74341        -2.44092
C         21.94346        31.25817        -2.77255
C         23.23476        33.25704        -2.48825
C         21.91362        33.95270        -2.22678
C         23.25329        36.08752        -2.17779
C         21.95187        35.32584        -2.11759
C         23.15381        37.39904        -1.38438
C         21.93432        38.24018        -1.70096
C         23.20813        40.35150        -1.45709
C         21.99444        39.67770        -1.57734
C         23.27956        41.81452        -1.38440
C         21.97619        42.55770        -1.35794
C         23.14375        44.57554        -0.33118
C         21.89803        43.83589        -0.59569
C         23.12321        45.93619        -0.08948
C         21.87747        46.67018        -0.22854
C         23.09070        48.78926         0.44476
C         21.94069        48.17539        -0.39072
C         23.18841        50.29971         0.18599
C         21.85222        51.03376         0.36509
C         22.79173        53.32753         0.62080
C         21.80086        52.41909         0.87249
C         22.99966        54.51552         1.40720
C         21.79773        55.08578         1.94323
C         23.09685        56.96873         2.72354
C         21.82798        56.39602         2.51033
C         23.20779        58.36245         3.21901
C         22.02556        58.85129         3.96532
C         23.39975        60.63780         4.92776
C         22.13500        60.01080         4.71243
C         24.44160         4.22176         0.56715
C         25.68190         6.20365         1.40358
C         24.46203         5.54964         1.06354
C         25.68920         7.51581         1.83335
C         24.45524         8.22660         2.00153
C         25.75519        10.37571         1.80949
C         24.49515         9.67102         2.10470
C         25.73733        11.71999         1.52636
C         24.49138        12.52951         1.84286
C         25.65836        14.57507         0.80648
C         24.39784        13.88859         1.19915
C         25.67732        16.04839         0.96616
C         24.39675        16.76333         0.92975
C         25.66772        18.94461         0.49683
C         24.44897        18.26273         1.10428
C         25.67301        20.30510         0.38517
C         24.41075        21.07553         0.78774
C         25.71144        23.21240         0.37938
C         24.40273        22.47070         0.21364
C         25.67159        24.63036        -0.19442
C         24.46990        25.09044        -0.95400
C         25.72591        27.29168        -1.52506
C         24.50055        26.44661        -1.60439
C         25.68875        28.69623        -1.75031
C         24.46666        29.36501        -2.32905
C         25.40411        31.61296        -1.36301
C         24.52132        30.94326        -2.50020
C         25.63726        33.08497        -1.72257
C         24.41109        33.91460        -1.82130
C         25.67364        35.97808        -1.34462
C         24.45036        35.27148        -1.72032
C         25.66385        37.36318        -1.14569
C         24.47298        38.13739        -1.50773
C         25.69754        40.33814        -0.96547
C         24.49944        39.64251        -1.43973
C         25.68086        41.72876        -0.70008
C         24.48925        42.45319        -0.83561
C         25.58663        44.38115         0.43762
C         24.36970        43.76196        -0.18105
C         25.48970        45.82860         0.94054
C         24.36236        46.64019         0.28482
C         25.56468        48.70049         0.97996
C         24.38477        48.00010         0.39408
C         25.69792        50.15116         0.66747
C         24.47979        50.96207         0.48231
C         25.77608        53.04351         1.00246
C         24.68266        52.31925         0.37634
C         25.63133        54.39857         1.48378
C         24.30828        55.00234         1.73890
C         26.13199        57.28428         2.67823
C         24.22759        56.14354         2.58687
C         25.85969        58.63162         2.79881
C         24.54383        59.13075         3.32481
C         24.54987        60.20109         4.33009
C         26.99758         8.19172         2.19396
C         28.22142        10.32771         1.69809
C         27.02434         9.66299         1.83641
C         28.28495        11.73243         1.36286
C         26.98388        12.37372         1.07734
C         28.23399        14.58984         0.75970
C         26.96769        13.83663         0.72900
C         28.22719        15.98735         0.58987
C         26.95893        16.76152         0.72252
C         28.13411        18.84867         0.11575
C         26.84964        18.10330         0.03517
C         28.09629        20.25027        -0.29397
C         26.86787        21.03438        -0.04289
C         28.17189        23.12225        -0.30552
C         26.91571        22.41480        -0.11377
C         28.24406        24.64298        -0.15034
C         26.93543        25.37007        -0.42823
C         28.15563        27.38735        -1.21829
C         26.93254        26.65971        -1.17162
C         28.12138        28.79661        -1.32408
C         26.86265        29.45078        -1.49488
C         28.06900        31.62709        -0.90328
C         26.73260        30.84189        -0.94129
C         28.12267        33.11716        -0.98392
C         26.90811        33.82666        -1.45495
C         28.13637        35.96321        -1.02664
C         26.89868        35.28065        -1.23316
C         28.15342        37.35683        -0.78672
C         26.86520        38.04275        -0.67464
C         28.17318        40.26023        -0.51109
C         26.86867        39.57236        -0.56941
C         28.13482        41.69556        -0.40340
C         26.92450        42.39913        -0.32741
C         28.06625        44.49383         0.34404
C         26.90215        43.77808         0.09657
C         28.02050        45.84023         0.88575
C         26.83730        46.52119         1.01024
C         28.09580        48.70973         1.47160
C         26.81405        47.95831         1.35645
C         28.16323        50.07633         1.40032
C         26.99633        50.86098         0.92239
C         28.16855        52.95821         1.59301
C         26.96575        52.31277         1.18540
C         28.10716        54.36165         1.72621
C         26.88995        55.08899         1.75305
C         27.05894        56.51533         1.94429
C         29.44782        12.45923         1.19189
C         30.66748        14.61596         0.79953
C         29.46353        13.88292         0.89527
C         30.68040        16.02022         0.60838
C         29.43007        16.70638         0.54552
C         30.70012        18.92969         0.33400
C         29.37437        18.18026         0.48158
C         30.69859        20.29655        -0.22346
C         29.40610        20.98103        -0.50399
C         30.70166        23.15145        -0.34084
C         29.36522        22.44610        -0.42195
C         30.64842        24.49307        -1.04426
C         29.36009        25.23108        -1.00219
C         30.62356        27.36867        -1.17992
C         29.40006        26.69650        -1.12310
C         30.60242        28.80539        -1.17868
C         29.36734        29.51764        -1.21578
C         30.58509        31.65770        -1.15875
C         29.36379        30.93338        -1.11623
C         30.61359        33.12325        -1.17637
C         29.40428        33.83727        -1.15302
C         30.61438        35.98078        -1.01930
C         29.38904        35.25089        -1.08158
C         30.59721        37.39024        -0.85347
C         29.37280        38.08868        -0.68981
C         30.66213        40.20158        -0.15427
C         29.35425        39.53120        -0.50599
C         30.65978        41.70984        -0.22394
C         29.40143        42.43105        -0.39743
C         30.62388        44.51975         0.48777
C         29.37207        43.92485        -0.02064
C         30.58785        45.80472         1.05773
C         29.29749        46.45208         1.35102
C         30.62072        48.63664         1.73493
C         29.32040        47.92968         1.72178
C         30.60601        50.05023         1.79541
C         29.40716        50.79564         1.65749
C         29.37463        52.20263         1.74346
C         31.90909        16.75761         0.45235
C         33.15243        18.86452         0.00993
C         31.94933        18.13621         0.23953
C         33.15425        20.25011        -0.24186
C         31.88687        20.93792        -0.43483
C         33.14467        23.12439        -0.80211
C         31.85173        22.34964        -0.96758
C         33.13993        24.50012        -0.95924
C         31.91521        25.24837        -1.11458
C         33.11990        27.39760        -0.98062
C         31.88570        26.64499        -1.14961
C         33.07656        28.81410        -0.89711
C         31.82476        29.52518        -1.07327
C         33.10035        31.63821        -1.19307
C         31.80568        30.93145        -1.13193
C         33.11255        33.14599        -1.27908
C         31.83221        33.86611        -1.20816
C         33.12837        35.99800        -1.11859
C         31.85837        35.27209        -1.12103
C         33.14763        37.42318        -1.10863
C         31.85343        38.13782        -1.09054
C         33.14679        40.41188        -0.91277
C         31.83906        39.62702        -0.92785
C         33.10340        41.68642        -0.09317
C         31.84721        42.39750        -0.00766
C         33.04743        44.43414         0.80320
C         31.84409        43.80521         0.37514
C         33.01792        45.74921         1.25907
C         31.80075        46.47688         1.38783
C         31.79605        47.87208         1.70940
C         34.35383        21.00920        -0.32003
C         35.57649        23.14606        -0.36115
C         34.37464        22.40380        -0.53229
C         35.62278        24.54082        -0.51025
C         34.44284        25.24023        -1.14399
C         35.50509        27.41131        -0.42097
C         34.34679        26.70893        -0.80994
C         35.43662        28.80838        -0.24379
C         34.26053        29.53227        -0.55659
C         35.41405        31.72723        -0.28331
C         34.28926        30.97379        -0.63580
C         35.48143        33.15172        -0.46567
C         34.33689        33.86859        -0.89551
C         35.71064        35.90894        -1.18690
C         34.34641        35.27541        -1.00453
C         35.69594        37.47930        -1.27621
C         34.36381        38.15356        -0.94832
C         35.57371        40.26487        -0.42638
C         34.37013        39.54466        -0.68910
C         35.52784        41.58574         0.01095
C         34.30493        42.28815         0.23599
C         34.37347        43.70042         0.77626
C         36.75940        25.28646        -0.16632
C         37.90285        27.42974         0.23130
C         36.75568        26.70714        -0.13105
C         37.88393        28.83851         0.43991
C         36.57440        29.51410         0.35499
C         37.80968        31.73412         0.57570
C         36.54106        31.03188         0.37251
C         37.74359        33.19708         0.65936
C         36.63960        33.90456        -0.02196
C         37.93784        36.00066         0.07407
C         36.73331        35.27061        -0.25533
C         37.92720        37.44899        -0.08156
C         36.87030        38.13274        -0.57285
C         36.90545        39.63162        -0.72935
C         39.01675        29.59591         0.73014
C         40.23053        31.77257         0.97629
C         38.98785        31.03061         0.82024
C         40.28376        33.12832         0.94441
C         39.06274        33.94936         0.88848
C         39.08295        35.35916         0.49823
O         24.68656        25.22348        -2.41119
O         16.90447        48.05771        -1.52548
O         25.27062        56.44725         3.43920
O         19.98412        35.79602        -3.47227
O         23.76201        53.07732        -0.34961
O         29.75554        24.50841        -2.20684
O         36.16674        30.24517         1.56392
O         26.49134        16.60572         2.10401
O         21.88016        30.10440        -3.54851
O         16.64485        21.39966        -1.20950
O         22.01092         8.65692         3.49751
O         12.01449        42.52414        -2.09906
O         12.54481        26.43301         2.00966
O         24.13002        28.67467        -3.58163
O         10.49132        35.81309         0.33824
O         26.63412        50.42543        -0.45110
O         19.95026        26.70035        -2.89968
O         15.53223        21.04319         2.18694
O         20.89411        15.83477         3.01832
O         16.96254        16.29188        -0.60678
O         13.96420        44.68931        -2.82919
O         25.81356        48.36190         2.38312
O         19.78064         9.85183         3.08001
O         33.30810        32.32070        -2.48494
O         24.74386        43.52637         1.28411
O         14.31548        38.64840        -3.41705
O         26.11730        25.60085         0.81771
O         31.58536        39.09101        -2.24007
O         10.80506        40.40358        -2.25829
O         26.63430        38.72425         0.62996
O         24.74364        14.05401        -0.21971
O         20.15063        24.34498        -2.20108
O          8.61012        33.44630        -1.98054
O         26.53755        30.33240         0.36962
O         28.68134        20.42929        -1.66409
O         22.43357        50.81757        -0.95537
O         11.04266        37.62810        -2.88379
O         28.06764        32.46584         0.31798
O         16.46945        40.15729        -3.64791
O         35.78570        37.86325        -2.64190
O         38.10922        33.69776         1.98559
O         29.19660        46.89833         2.75168
O         18.50040        29.01887        -3.04014
O         22.77744        42.57966        -2.57353
O         21.04449        43.76486         0.59843
O         24.70339        38.90212        -2.73023
O         29.45864        43.49539        -1.41168
O         15.77881        37.04752        -0.31748
O         11.76899        34.48019        -2.67651
O         17.59869        42.44261        -3.37196
O         30.05134        18.84348         1.64291
O         23.61766        59.34708         2.19657
O         26.54888        33.38000        -2.83137
O         26.92620        12.82943        -0.33543
O         18.56319        40.11331        -0.56461
O         14.40779        26.70818        -1.91237
H         13.62355        26.15559        -2.10910
O         18.51965        57.19608         1.89091
H         18.95546        57.17143         1.01408
O         12.59645        45.13389        -2.77718
H         12.08485        44.29442        -2.92190
O         26.58998        17.75857        -1.37243
H         26.77287        18.55498        -1.91711
O         30.94931        39.83823         1.24027
H         30.14703        40.01617         1.77573
O         18.10023        11.58956         3.66897
H         18.36074        12.43697         4.10160
O         24.55049        31.63189        -0.21075
H         25.07141        31.14110         0.49589
O         20.44914        49.95855         2.06841
H         21.23904        49.43559         2.35797
O         15.80900        16.87687        -1.23955
H         15.13935        16.15090        -1.20688
O         20.64093        18.44182        -1.22621
H         19.83116        18.84838        -1.60450
O         23.46603        36.40787        -3.56689
H         23.50768        35.55024        -4.05583
O         24.55089        12.80758         3.26681
H         24.51083        11.95393         3.74885
O         23.51052        33.51944        -3.92250
H         24.31862        32.99337        -4.14701
O         33.35468        40.90500        -2.27440
H         33.07203        40.17771        -2.87934
O         37.92941        40.25559         0.03581
H         38.79593        40.01695        -0.34920
O         31.57445        22.27253        -2.38780
H         32.30149        21.77869        -2.81969
O         36.14134        35.44295        -2.49616
H         36.08415        36.26866        -3.06880
O         24.53945        18.45390         2.54991
H         25.34250        17.96534         2.85135
O         24.40583        21.20719         2.23903
H         25.08271        21.88820         2.47296
O          9.86562        30.29479         2.20960
H         10.81933        30.52267         2.34668
O         18.21399        48.27593         1.91139
H         18.95823        48.76955         2.34087
O         34.95165        43.69873         2.09436
H         34.35491        43.20323         2.69178
O         19.36892        12.61277         0.36841
H         20.25900        12.82590         0.01727
O         28.64359        24.91763         1.22283
H         27.82413        25.12847         1.72812
O         13.25399        37.91377         0.00413
H         14.11088        37.56406         0.35985
O         19.38176        53.38611        -0.39192
H         19.50012        52.81332        -1.19078
O         31.02030        23.36344         1.05039
H         30.28665        23.89332         1.44730
O         19.37546        51.04517        -1.23074
H         18.49901        50.78314        -1.58359
O         25.15436        31.17203        -3.76465
H         24.79211        30.51142        -4.39765
O         28.11294         7.51055         1.62003
H         28.07670         7.62367         0.64829
O         25.95231        23.33114         1.82329
H         25.91248        24.29295         2.04667
O         20.43246        52.28563         2.92428
H         21.22696        52.51366         3.44867
O         20.01035        43.17162        -3.23210
H         19.21112        43.26304        -3.80627
O         23.02312        36.99176         0.00701
H         22.95749        37.79199         0.56902
O         18.72633        31.74650         0.09335
H         18.08792        32.32913         0.55883
O         22.73410        48.65572         1.86755
H         23.46912        48.20726         2.34512
O         19.29577        13.97871         3.77073
H         19.67442        14.82629         4.10792
O         34.70854        25.19107        -2.59453
H         33.91762        25.55102        -3.05039
O         16.04083        27.64354         1.20468
H         16.86357        28.13889         1.39855
O         25.05545        45.77784         2.32940
H         24.63122        44.89325         2.45687
O          6.55460        30.90256        -1.34412
H          6.71606        31.74556        -1.82076
O         22.21684        48.35758        -1.79670
H         22.16886        49.32535        -1.98818
O         21.70347        25.78664         0.75465
H         22.54839        26.14381         1.10311
O         12.60896        30.20885         1.81540
H         12.85758        29.37537         2.27328
O         23.15191        11.51243         0.10855
H         23.66092        12.21759        -0.35321
H          5.27431        31.37050         1.30344
H          5.28107        33.82446         1.12398
H          7.59061        27.08938         1.11563
H          6.32923        29.02217         0.53537
H          6.22416        35.87748         0.16627
H          7.30733        37.96782        -0.40757
H         10.00793        22.88067         1.33759
H          8.81329        25.03877         1.27011
H          8.40017        39.89938        -0.02089
H         10.05915        41.97680         0.65897
H         12.36421        18.57024         1.60250
H         11.16489        20.76277         1.44132
H         11.74253        43.90724         0.96079
H         12.62884        46.04251         0.83101
H         14.76124        14.25201         2.05399
H         13.55483        16.40443         1.85337
H         13.60442        48.23661         0.97461
H         14.82144        50.42218         1.54824
H         17.46678        10.30160         0.65422
H         15.93184        12.13998         1.99658
H         16.01985        52.55496         1.99009
H         17.21751        54.65785         2.53193
H         19.86639         5.86735         0.57465
H         18.67990         7.72560         0.73649
H         18.71198        56.37204         3.76266
H         19.87832        58.59843         4.27060
H         23.23715         2.58571        -0.16326
H         21.08217         3.80951         0.07663
H         23.44884        61.46946         5.64547
H         21.24568        60.42174         5.21221
H         25.38946         3.67806         0.44751
H         26.63511         5.66582         1.29263
H         26.49400        59.37210         2.28995
H         25.51837        60.62686         4.63144
H         27.11968         8.11006         3.31243
H         29.16006         9.76490         1.81617
H         29.03980        54.91272         1.92072
H         28.00799        56.96431         1.61494
H         30.41784        11.95610         1.32642
H         31.62619        14.08288         0.88714
H         31.55847        50.58949         1.91006
H         30.30744        52.74269         1.96444
H         32.85351        16.19262         0.44867
H         34.11296        18.32996         0.06549
H         33.96091        46.23542         1.54915
H         32.76548        48.38190         1.81633
H         35.30901        20.49524        -0.13139
H         36.47527        22.61730        -0.00655
H         36.47650        42.09767         0.22840
H         35.08930        44.27774         0.13040
H         37.66435        24.75538         0.16851
H         38.84767        26.88598         0.38479
H         38.80251        37.99826         0.30134
H         37.09395        39.83049        -1.82848
H         39.98788        29.08842         0.83389
H         41.16336        31.19297         1.04312
H         41.25658        33.64267         0.94366
H         40.02259        35.92493         0.59123
