         404
 CSIRO Nanostructure Databank - Neutral Graphene Oxide Data Set
C          1.39287         2.16723        -0.18141
C          1.36943         3.54632         0.18568
C          2.54824         1.43920        -0.18685
C          2.51527         4.24618         0.52487
C          1.35897         6.45278         0.58671
C          1.36126         7.81730         0.83873
C          2.54491         5.69620         0.66014
C          2.55461         8.48933         1.15746
C          1.28728        10.73335         1.32227
C          1.32280        12.07359         1.18356
C          2.55114         9.95012         1.58855
C          2.57107        12.83553         1.09697
C          1.37573        15.03629         1.24080
C          1.38075        16.43171         1.27708
C          2.56147        14.29857         1.09214
C          2.58372        17.14992         1.17258
C          2.61051        18.58800         1.19607
C          3.76989         1.98347         0.39806
C          3.75755         3.50730         0.78608
C          5.06294         1.40334         0.07790
C          5.04325         4.23006         0.83244
C          3.77511         6.36929         0.93139
C          3.76682         7.77218         1.16676
C          5.01612         5.62089         0.98065
C          5.04330         8.51237         1.53839
C          3.75054        10.67196         0.99986
C          3.75440        12.14951         0.98180
C          5.03962         9.92832         0.99806
C          5.05664        12.81244         0.61108
C          3.80525        15.00025         0.98340
C          3.81011        16.43109         1.03091
C          5.03769        14.30362         0.83670
C          5.03268        17.14515         0.90342
C          3.78296        19.27576         1.06508
C          5.03666        18.58429         0.90514
C          6.26022         2.09158         0.30155
C          6.27795         3.49720         0.68479
C          7.48874         1.42472         0.05895
C          7.51955         4.16715         0.70755
C          6.27565         6.33677         1.25390
C          6.32241         7.80449         1.15405
C          7.58303         5.58398         1.09966
C          7.51269         8.49245         1.04412
C          6.33071        10.65995         1.05192
C          6.27830        12.15752         1.30167
C          7.50088         9.96439         1.06864
C          7.55392        12.85661         0.87565
C          6.25253        14.99831         0.76967
C          6.25474        16.43530         0.76596
C          7.51010        14.28478         0.67084
C          7.46894        17.15203         0.59325
C          6.23684        19.27756         0.74654
C          7.46878        18.58691         0.57362
C          8.72299         2.09510         0.12161
C          8.73882         3.50756         0.40053
C          9.94335         1.41493        -0.09843
C          9.97489         4.22310         0.37225
C          8.79887         6.36363         0.80272
C          8.78128         7.78018         0.86764
C          9.99081         5.66035         0.51238
C         10.00102         8.48883         0.70549
C          8.78368        10.72136         1.34014
C          8.74032        12.15449         0.81805
C         10.05422         9.95215         0.94662
C          9.94443        12.83005         0.38377
C          8.70242        14.99453         0.46331
C          8.69484        16.44319         0.42416
C          9.92633        14.27188         0.23546
C          9.88908        17.16345         0.26615
C          8.68033        19.28069         0.35306
C          9.89557        18.59079         0.17518
C         11.16880         2.10214        -0.06450
C         11.18666         3.52598         0.14636
C         12.38951         1.42329        -0.29388
C         12.43597         4.22076         0.09029
C         11.20681         6.37513         0.31507
C         11.20156         7.80496         0.37607
C         12.42722         5.65587         0.10231
C         12.41298         8.52362         0.03178
C         11.24325        10.69432         0.38294
C         11.10523        12.12677         0.07854
C         12.40832         9.93589        -0.13376
C         12.20823        12.81844        -0.59422
C         11.11145        14.96434        -0.05701
C         11.14787        16.42419         0.14092
C         12.29352        14.28022        -0.47995
C         12.36979        17.17684        -0.29113
C         11.10030        19.29482        -0.17640
C         12.28740        18.64301        -0.49970
C         13.64047         2.05799        -0.22377
C         13.66649         3.49917         0.00276
C         14.77856         1.25836        -0.59716
C         14.87312         4.27028        -0.06491
C         13.62768         6.37998        -0.14146
C         13.61088         7.80933        -0.23739
C         14.85206         5.68093        -0.28064
C         14.81703         8.50499        -0.55309
C         13.56634        10.61193        -0.55568
C         13.50325        12.05251        -0.89959
C         14.79966         9.91941        -0.71004
C         14.73150        12.83415        -0.98948
C         13.46115        14.94013        -0.88962
C         13.40410        16.41490        -1.04427
C         14.69531        14.23464        -1.13926
C         14.59459        17.18217        -1.51566
C         13.48070        19.31879        -0.87564
C         14.66744        18.63852        -1.21126
C         16.09726         1.57946        -0.27254
C         16.15285         3.68138         0.07869
C         17.33073         1.17349        -0.81129
C         17.34168         4.24395        -0.43902
C         16.07595         6.37783        -0.55911
C         16.04848         7.79616        -0.71928
C         17.29811         5.66599        -0.72174
C         17.24321         8.50318        -1.05082
C         16.02747        10.63184        -0.94869
C         16.00435        12.11357        -0.87760
C         17.23414         9.94779        -1.12957
C         17.26988        12.87332        -1.26000
C         15.90638        14.95957        -1.49748
C         15.84267        16.40814        -1.80609
C         17.14491        14.30940        -1.63290
C         17.13725        17.19935        -1.82427
C         15.90539        19.30623        -1.26014
C         17.13634        18.63885        -1.47258
C         18.50543         1.98851        -0.74586
C         18.48221         3.43799        -0.71733
C         19.76083         1.30574        -0.81869
C         19.67122         4.14355        -1.22498
C         18.47483         6.37270        -1.08552
C         18.43580         7.77034        -1.26369
C         19.72564         5.62926        -1.22180
C         19.66766         8.45761        -1.80506
C         18.48518        10.66775        -1.40880
C         18.45270        12.07260        -1.60639
C         19.69075         9.95450        -1.62493
C         19.64851        12.74934        -2.07209
C         18.35495        15.04289        -1.85819
C         18.39775        16.45141        -1.72398
C         19.61550        14.32206        -2.11100
C         19.60333        17.17744        -1.63704
C         18.36470        19.28120        -1.29986
C         19.61182        18.59079        -1.40179
C         20.99445         1.95849        -0.85162
C         20.99028         3.37945        -1.25423
C         22.23976         1.29990        -0.71037
C         22.28016         4.13485        -1.21607
C         20.91895         6.29989        -1.32707
C         20.91421         7.78427        -1.26787
C         22.22584         5.62290        -1.30771
C         22.21791         8.53286        -1.33975
C         20.95049        10.62450        -1.82399
C         20.95648        12.07437        -1.91915
C         22.17597         9.93554        -1.80183
C         22.11955        12.80502        -1.77891
C         20.86079        15.00133        -1.83767
C         20.87149        16.45989        -1.78260
C         22.06280        14.25392        -1.50027
C         22.17461        17.20991        -1.50807
C         20.83168        19.27112        -1.14107
C         22.08248        18.62478        -1.08950
C         23.45482         2.01073        -0.60119
C         23.33701         3.49858        -0.31253
C         24.68051         1.36261        -0.47304
C         24.69886         4.31417        -0.27448
C         23.47216         6.40349        -1.09023
C         23.47384         7.76608        -1.35212
C         24.69044         5.66236        -0.95806
C         24.74622         8.38324        -1.86552
C         23.43968        10.63021        -2.06325
C         23.43792        12.16797        -1.90696
C         24.75797         9.91072        -1.88643
C         24.66257        12.85936        -1.40762
C         23.33813        14.97885        -1.14100
C         23.38327        16.45087        -1.16778
C         24.62022        14.23898        -1.12105
C         24.53496        17.11999        -0.78660
C         23.27265        19.26337        -0.70239
C         24.50797        18.56593        -0.61304
C         25.91570         2.07673        -0.44809
C         25.95111         3.50933        -0.56732
C         27.12311         1.38286        -0.29958
C         27.17354         4.16209        -0.71974
C         25.94202         6.34424        -1.02228
C         25.97192         7.74279        -1.25402
C         27.17418         5.62392        -0.81318
C         27.14887         8.48295        -0.99029
C         25.96704        10.67995        -1.43081
C         25.86223        12.14038        -1.14429
C         27.14515         9.91580        -0.94174
C         26.97939        12.81319        -0.61908
C         25.78511        14.95069        -0.72030
C         25.75657        16.38480        -0.55208
C         26.98406        14.22825        -0.45764
C         26.93451        17.08618        -0.23444
C         25.70328        19.23182        -0.30214
C         26.92560        18.53104        -0.14147
C         28.39289         2.00719        -0.36162
C         28.43934         3.43487        -0.68842
C         29.48477         1.20752         0.09204
C         29.63747         4.17808        -0.72070
C         28.35735         6.35221        -0.72023
C         28.34922         7.77533        -0.66656
C         29.68231         5.67604        -0.88036
C         29.54032         8.49185        -0.33066
C         28.28205        10.59603        -0.51522
C         28.16267        12.03984        -0.18113
C         29.49171         9.89042        -0.24104
C         29.37223        12.79874         0.26187
C         28.17386        14.95050        -0.06321
C         28.15812        16.37605        -0.00832
C         29.38181        14.27219         0.22856
C         29.35934        17.08612         0.26575
C         28.13039        19.21588         0.10283
C         29.35398        18.52868         0.28625
C         30.83942         1.51140        -0.11843
C         30.93012         3.58844        -0.68612
C         31.97911         1.17972         0.62246
C         32.04560         4.18496        -0.07109
C         30.80375         6.33783        -0.10871
C         30.76140         7.77033         0.02502
C         31.92997         5.59547         0.23270
C         31.88525         8.48068         0.47048
C         30.74536        10.64502         0.00010
C         30.69825        12.12630         0.19576
C         31.93846         9.91526         0.48146
C         31.82569        12.84123         0.81888
C         30.57677        14.95716         0.53287
C         30.57272        16.38563         0.51637
C         31.79574        14.23530         0.87936
C         31.78441        17.10447         0.75182
C         30.56961        19.22268         0.47449
C         31.78847        18.54513         0.68307
C         33.16883         1.97935         0.63890
C         33.18908         3.42362         0.39124
C         34.33889         1.33592         1.11978
C         34.32856         4.15144         0.83097
C         33.06861         6.25439         0.87611
C         33.05236         7.75531         0.98588
C         34.37547         5.57874         0.85980
C         34.34631         8.45206         1.03814
C         33.03292        10.60029         0.98855
C         32.99458        12.05742         1.22235
C         34.28299         9.88181         1.30951
C         34.33051        12.82504         1.33022
C         33.01059        14.98313         1.12694
C         32.98034        16.39492         1.03933
C         34.27730        14.28698         1.12843
C         34.21327        17.16002         1.26008
C         33.01598        19.26336         0.78147
C         34.23742        18.61345         0.99551
C         35.53698         2.01266         1.39948
C         35.48490         3.47435         1.39021
C         36.75604         1.38031         1.71660
C         36.84497         4.27610         1.39102
C         35.56927         6.32019         0.88980
C         35.55307         7.77651         0.89474
C         36.84693         5.65426         0.87964
C         36.78543         8.49737         0.66131
C         35.64025        10.64054         1.29116
C         35.59376        12.09797         1.07877
C         36.82007         9.88502         0.81131
C         36.72720        12.76960         0.67439
C         35.46643        14.96063         0.89158
C         35.54003        16.39671         1.13423
C         36.67338        14.23284         0.45257
C         36.77144        17.14756         0.82996
C         35.48252        19.27853         0.98854
C         36.72807        18.59988         0.93291
C         37.98667         2.07164         1.65176
C         38.04197         3.46126         1.31689
C         39.22569         1.34733         1.71627
C         39.21017         4.05198         0.79014
C         38.02239         6.25803         0.41481
C         37.90481         7.73973        -0.06410
C         39.18756         5.40302         0.26298
C         39.19425         8.56586        -0.08765
C         38.00637        10.66318         0.52761
C         37.98395        12.07341         0.51093
C         39.22675         9.95659         0.23223
C         39.21403        12.83280         0.42193
C         37.95949        15.00961         0.27987
C         37.93095        16.47889         0.51167
C         39.23596        14.26234         0.42071
C         39.17769        17.23532         0.35145
C         37.94248        19.31347         0.91017
C         39.18255        18.66084         0.72302
C         40.38601         1.92367         1.28090
C         40.39783         3.24666         0.72336
C         41.53840         3.72650         0.05969
C         40.31824         5.73159        -0.52838
C         40.33786         8.06002        -0.70793
C         41.46616         4.93819        -0.62364
C         41.55381         8.76091        -0.79329
C         40.44337        10.69376         0.14364
C         40.44675        12.12425         0.39094
C         41.61832        10.05593        -0.31331
C         41.65537        12.84223         0.52721
C         40.45553        14.95639         0.52853
C         40.51310        16.44632         0.42589
C         41.65712        14.22250         0.62724
C         41.65447        17.20385         0.92492
C         40.41241        19.31363         0.88203
C         41.61268        18.57815         1.01742
O         12.22422        16.80061         1.11064
O         40.28444         6.83535        -1.38570
O         32.76279         6.90853         2.15901
O         20.21861         3.56848        -2.46852
O         23.50747        11.50732        -3.21802
O         28.46018        12.24206         1.26712
O          3.63913         2.45392         1.78009
O         25.73647        10.37781        -2.86782
O         34.96768        16.76635         2.44224
O         16.43661        16.83480        -3.06898
O         16.23492         2.50661         0.80078
O         33.57876        12.43427         2.51232
O         11.13780        10.36674         1.84771
O         13.49720        16.85388        -2.44269
O         21.45931         8.33838        -0.04742
O         31.03953        11.57431        -1.13073
O         36.03806         4.09506         2.58319
O         12.51067        12.32188        -1.95002
O         22.74801         3.52935         0.96880
O         39.95750        16.92479        -0.84091
O          7.01033         5.83718         2.43489
O         22.59061         4.73680        -2.48496
O          4.28105        10.08034        -0.25553
O         31.08891         2.32540        -1.24699
O         19.54813        13.48652        -3.32894
O         22.43477        14.51633        -0.03881
O         37.15403        14.61862        -0.89160
O         21.72799        16.99809        -2.89274
O         16.89429        12.65563         0.16113
O         35.01101        10.22483         2.53167
O         30.04168         5.89998        -2.30042
H         29.33215         5.50440        -2.85060
O          5.22982        12.61286        -0.82388
H          4.94480        11.68544        -1.02004
O          8.80577        10.85951         2.79646
H          9.75580        10.94453         3.05061
O         19.69205         8.20424        -3.24609
H         18.90989         8.63670        -3.64825
O         24.78100         7.98410        -3.27887
H         25.34861         8.64588        -3.73905
O         24.83673         4.75839         1.10441
H         24.01976         4.37024         1.56436
O          5.09927         8.60927         2.98778
H          5.35258         7.73095         3.34344
O          6.13551        12.32916         2.73067
H          6.90138        11.87594         3.15374
O         37.46143         7.64937        -1.45404
H         38.20689         7.26079        -1.96431
O          2.74237         9.97175         3.03095
H          2.00618         9.47704         3.44578
H          0.46829         1.72410        -0.57793
H          0.41799         4.07923         0.05519
H          2.58652         0.44744        -0.66045
H          0.40272         5.96248         0.36316
H          0.40949         8.36323         0.79590
H          0.31162        10.22944         1.38892
H          0.37245        12.61723         1.08557
H          0.41193        14.51868         1.33700
H          0.43248        16.97674         1.39027
H          1.65959        19.12839         1.31337
H          5.09534         0.41106        -0.39656
H          3.78730        20.37558         1.07593
H          7.47059         0.35351        -0.19020
H          6.23438        20.37778         0.74215
H          9.93190         0.33301        -0.29620
H          8.66831        20.37924         0.29490
H         12.35483         0.34563        -0.51254
H         11.04893        20.39026        -0.27131
H         14.58310         0.35917        -1.20018
H         13.50116        20.41806        -0.81919
H         17.41111         0.20218        -1.32125
H         15.92987        20.38118        -1.02494
H         19.74658         0.21125        -0.70094
H         18.37574        20.35124        -1.04356
H         22.25877         0.19754        -0.71164
H         20.78523        20.34347        -0.89827
H         24.71238         0.26301        -0.41062
H         23.25311        20.33676        -0.46101
H         27.08442         0.29831        -0.11649
H         25.69672        20.32574        -0.18550
H         29.23387         0.33076         0.70920
H         28.12307        20.31522         0.14508
H         31.94822         0.30626         1.29194
H         30.56645        20.32253         0.44912
H         34.31196         0.24278         1.24443
H         33.00260        20.35425         0.63902
H         36.77460         0.28678         1.83730
H         35.49020        20.37734         0.92624
H         39.21558         0.30528         2.06630
H         37.93034        20.40211         1.06907
H         41.32595         1.35276         1.28557
H         42.44630         3.10969         0.00991
H         42.29765         5.28062        -1.25293
H         42.42255         8.28340        -1.26369
H         42.56167        10.61114        -0.39072
H         42.61479        12.30969         0.56203
H         42.61580        14.74952         0.72139
H         42.55006        16.66959         1.27126
H         40.42447        20.39623         1.07272
H         42.52101        19.11781         1.32217
