         244
 CSIRO Nanostructure Databank - Neutral Graphene Oxide Data Set
C          1.31871         2.15025         0.93457
C          1.32035         3.54448         1.04663
C          2.50382         1.44897         0.75922
C          2.52604         4.28713         1.00063
C          1.37171         6.47842         1.33212
C          1.36139         7.84090         1.51528
C          2.55413         5.71132         1.17190
C          2.59810         8.63946         1.46396
C          1.39589        10.84565         1.35990
C          1.37850        12.23041         1.23857
C          2.54211        10.06761         1.06207
C          2.47903        12.92873         0.69015
C          1.33764        15.15567         0.72854
C          1.39714        16.49290         0.90131
C          2.52871        14.33302         0.52542
C          2.74681        17.13903         1.08617
C          2.78020        18.64146         0.90612
C          3.74093         2.14691         0.66355
C          3.75435         3.57217         0.78479
C          4.94709         1.44038         0.44372
C          4.99291         4.27616         0.60594
C          3.89791         6.36315         1.43957
C          3.89628         7.89345         1.30221
C          5.03784         5.69058         0.71950
C          5.02538         8.58200         0.62422
C          3.70344        10.67786         0.54092
C          3.58337        12.10667         0.15372
C          4.91762         9.96631         0.33616
C          4.77255        12.82252        -0.42783
C          3.74563        14.98734         0.13704
C          3.73032        16.50418         0.08403
C          4.87628        14.28154        -0.28395
C          5.13401        17.10164         0.24908
C          3.88868        19.29106         0.47888
C          5.10623        18.60340         0.08007
C          6.17375         2.11598         0.27425
C          6.18336         3.55471         0.30587
C          7.38983         1.41294         0.08898
C          7.39969         4.25820         0.08737
C          6.20745         6.40596         0.38804
C          6.19817         7.84800         0.31487
C          7.39910         5.68316         0.06006
C          7.37343         8.53208        -0.18382
C          6.18810        10.73348         0.02094
C          6.01189        12.03751        -0.73990
C          7.33299         9.89092        -0.47128
C          7.23589        12.77738        -1.18646
C          6.12309        14.92827        -0.64843
C          6.09644        16.40699        -0.69017
C          7.26794        14.25476        -1.06594
C          7.33336        17.13918        -1.10095
C          6.22509        19.26764        -0.34738
C          7.42818        18.58702        -0.78177
C          8.61465         2.09547        -0.06591
C          8.61715         3.53183        -0.09808
C          9.84975         1.39606        -0.17100
C          9.84102         4.23196        -0.27276
C          8.61563         6.38699        -0.21723
C          8.60659         7.79498        -0.35634
C          9.84190         5.66055        -0.34563
C          9.83557         8.49768        -0.58650
C          8.54135        10.55801        -0.99567
C          8.54198        12.03749        -1.30369
C          9.83719         9.89435        -0.81422
C          9.81975        12.78565        -1.24581
C          8.54592        14.94377        -1.25932
C          8.55440        16.34960        -1.29587
C          9.79276        14.19980        -1.26595
C          9.77638        17.10484        -1.60299
C          8.61715        19.24702        -0.96192
C          9.82753        18.55911        -1.33768
C         11.06700         2.07775        -0.29069
C         11.06805         3.51316        -0.36092
C         12.32312         1.38193        -0.31396
C         12.29666         4.21915        -0.48878
C         11.06648         6.35926        -0.51765
C         11.06727         7.77919        -0.62047
C         12.30158         5.63821        -0.57781
C         12.28873         8.49864        -0.78167
C         11.03753        10.61684        -1.07023
C         11.02562        12.04136        -1.27640
C         12.26506         9.88848        -1.00041
C         12.25946        12.75663        -1.81194
C         11.09748        14.95212        -1.04342
C         11.08581        16.35257        -1.64580
C         12.32036        14.21201        -1.47907
C         12.33244        17.12649        -1.53182
C         11.04225        19.20324        -1.26375
C         12.30317        18.50647        -1.33602
C         13.52928         2.05548        -0.40368
C         13.53662         3.50267        -0.51641
C         14.79482         1.35366        -0.32066
C         14.74298         4.20789        -0.59750
C         13.53531         6.35000        -0.66059
C         13.54319         7.77548        -0.72786
C         14.76768         5.63012        -0.63270
C         14.77196         8.46812        -0.63709
C         13.55794        10.58082        -1.18320
C         13.59993        12.04065        -1.50750
C         14.77506         9.97416        -0.51388
C         14.84095        12.77776        -1.09423
C         13.63479        14.87817        -1.76647
C         13.60871        16.41125        -1.65503
C         14.68529        14.24907        -0.77325
C         14.83518        17.15410        -1.16239
C         13.49434        19.20811        -0.93205
C         14.68035        18.54595        -0.69718
C         15.99945         2.00296        -0.39168
C         16.04377         3.46847        -0.76217
C         17.26643         1.30964        -0.28261
C         17.17789         4.21699        -0.09899
C         16.00570         6.35863        -0.52958
C         15.97959         7.77433        -0.48350
C         17.23203         5.66674        -0.27206
C         17.18407         8.52150         0.03594
C         16.08709        10.59365        -1.06860
C         16.02713        12.11046        -0.90051
C         17.27542         9.95704        -0.39576
C         17.27628        12.80653        -0.58514
C         16.00085        15.00410        -0.66730
C         16.00961        16.37136        -0.70770
C         17.25305        14.26299        -0.44565
C         17.27017        17.17710        -0.43912
C         15.77254        19.15953         0.00863
C         16.97139        18.52159         0.21640
C         18.46264         1.97354        -0.17420
C         18.48562         3.44077         0.04432
C         19.74939         1.30273        -0.09472
C         19.71464         4.18984        -0.09184
C         18.45928         6.35565        -0.09155
C         18.48017         7.76888        -0.09615
C         19.71675         5.60185        -0.03613
C         19.69318         8.50105        -0.08294
C         18.46618        10.64420        -0.27553
C         18.45604        12.09921        -0.38902
C         19.69504         9.89866        -0.06442
C         19.78856        12.82198        -0.31953
C         18.38642        14.96229        -0.07588
C         18.19641        16.36482         0.46932
C         19.67720        14.28473         0.11579
C         19.48389        17.14609         0.82074
C         17.94293        19.09121         1.11137
C         19.07487        18.42669         1.51919
C         20.91222         1.98602        -0.17235
C         20.95362         3.45233        -0.52540
C         22.19574         4.17867        -0.09116
C         20.95368         6.28511        -0.00279
C         21.03051         7.78139        -0.18664
C         22.17051         5.53269         0.07699
C         22.00858         8.46505         0.75002
C         21.03431        10.61452         0.01060
C         20.82024        12.03822         0.46932
C         22.00536         9.79843         0.83983
C         21.55272        12.61370         1.50179
C         20.65326        14.89975         1.12807
C         20.39306        16.26346         1.66052
C         21.48734        13.95856         1.86099
C         21.02685        16.76650         2.75636
C         19.88194        18.92207         2.60090
C         20.81458        18.12251         3.19659
O         13.82484        11.02858        -2.56413
O          6.28943        12.17199        -2.14854
O         10.36884        16.59964        -2.87697
O          3.69079        12.35378        -1.30689
O          8.47876        11.07397        -2.39708
O          6.19567        16.90598        -2.05441
O         14.54328        17.02444        -2.59753
O         20.88173        14.98003        -0.36307
O         17.62572         3.79162         1.20914
O          3.55038         8.49560         2.60907
O         16.37357         3.51937        -2.19049
H         15.63521         3.10524        -2.68486
O         16.27788        10.24495        -2.45886
H         15.51044        10.60511        -2.96638
O         20.98361         3.48787        -2.00575
H         21.06645         4.42999        -2.27061
O          5.63197        16.81318         1.59310
H          6.40994        17.38612         1.75959
O         11.21475        15.18669         0.42544
H         12.09904        14.84910         0.70931
O         16.91193         8.61221         1.51885
H         16.92263         7.69282         1.86631
O          3.12115        16.85271         2.45621
H          4.10225        16.94019         2.52557
O         14.05154        14.33959         0.54955
H         14.55192        13.76483         1.16814
O          6.64434        11.23092         1.35027
H          6.63484        10.46971         1.97081
O         12.08293        12.69745        -3.27249
H         12.38074        11.79571        -3.54515
O         14.69643        10.30874         0.89642
H         15.40215         9.78787         1.35872
O         20.19224        17.55311        -0.36201
H         20.54484        16.73779        -0.79227
O         17.52095        16.19072         1.74725
H         16.62741        15.82503         1.57123
O         14.08608        14.52022        -3.08590
H         13.35195        14.05921        -3.55886
O         20.23905        12.88183        -1.72450
H         20.88058        13.63009        -1.76599
O         21.52603         7.94737        -1.54758
H         21.64225         8.92529        -1.69551
O         21.61010        10.65728        -1.34073
H         21.10637        11.36039        -1.83447
O          3.25647        16.88063        -1.22704
H          3.92298        16.60375        -1.89309
O          4.16150         6.05654         2.85148
H          3.81079         6.82794         3.36109
O         17.91831        17.39971        -1.70568
H         17.26259        17.79554        -2.31728
H          0.36524         1.60685         0.99407
H          0.36122         4.05650         1.20014
H          2.49655         0.35301         0.67487
H          0.39851         5.96819         1.28878
H          0.39564         8.35874         1.59248
H          0.51626        10.35045         1.79365
H          0.49668        12.78320         1.59059
H          0.35833        14.65561         0.68882
H          0.47971        17.08877         1.01941
H          1.89136        19.22179         1.19904
H          4.92342         0.34158         0.39114
H          3.88411        20.38966         0.39794
H          7.38026         0.31286         0.09436
H          6.22620        20.36885        -0.36638
H          9.84546         0.29672        -0.12701
H          8.68176        20.32355        -0.74176
H         12.31893         0.28500        -0.22516
H         11.06167        20.27860        -1.02989
H         14.77059         0.26857        -0.13394
H         13.40078        20.26689        -0.64793
H         17.25812         0.20848        -0.30612
H         15.60839        20.15681         0.44618
H         19.75526         0.21064         0.04484
H         17.68463        20.05076         1.58904
H         21.87129         1.45056        -0.10604
H         23.15269         3.63619        -0.09657
H         23.11392         6.07417         0.24032
H         22.74085         7.86783         1.31430
H         22.75890        10.30261         1.46076
H         22.23530        11.98375         2.08952
H         22.03769        14.29860         2.74735
H         21.72930        16.14901         3.33529
H         19.68279        19.93194         2.99022
H         21.39791        18.49123         4.05177
