         490
 CSIRO Nanostructure Databank - Neutral Graphene Oxide Data Set
C         37.77044        50.44006        -1.29353
C         36.68687        51.16735        -0.91397
C         37.89432        53.28527        -1.06985
C         36.75216        52.60000        -0.79602
C         40.29681        48.95638        -2.01652
C         40.26849        50.33108        -1.77019
C         38.98684        51.09771        -1.79190
C         40.44414        53.29054        -1.69601
C         39.04833        52.61945        -1.68902
C         40.44057        54.67924        -1.10938
C         42.61675        48.77931        -1.27939
C         41.44605        48.18791        -1.77706
C         42.60607        50.17187        -1.07347
C         41.45553        50.97911        -1.31750
C         42.51212        52.95243        -0.24847
C         41.47759        52.39320        -1.04668
C         42.48746        54.32025         0.19814
C         41.39668        55.14697        -0.27282
C         45.10456        45.89100        -1.08975
C         43.96711        46.58516        -1.34565
C         45.08354        48.62391        -0.49841
C         43.75130        47.92774        -0.70743
C         45.09616        50.08770        -0.39203
C         43.81869        50.85795        -0.61373
C         44.57484        52.56285         1.02791
C         43.63709        52.14062         0.07446
C         44.45213        53.86935         1.55175
C         43.52281        54.80674         1.05165
C         44.86544        56.86420         1.68410
C         43.69491        56.21856         1.39782
C         47.46074        44.30860        -0.30201
C         47.39388        45.70092        -0.09895
C         46.23187        46.46555        -0.38444
C         47.46063        48.56010         0.25857
C         46.22215        47.88994        -0.15418
C         47.43847        50.02870         0.46727
C         46.08551        50.65299         0.55341
C         47.67352        52.82039         1.90452
C         45.73833        51.73216         1.30421
C         47.61293        54.25116         1.86879
C         46.38333        54.95514         2.05551
C         47.40862        57.06417         1.43169
C         46.21268        56.29587         1.72472
C         47.40120        58.47688         1.30117
C         49.91108        44.22986        -0.20734
C         48.67154        43.59957        -0.33448
C         49.92658        45.63245         0.22965
C         48.62019        46.38993         0.34715
C         49.90379        48.54538         0.75506
C         48.64984        47.87341         0.41177
C         49.93925        49.89106         1.03375
C         48.71487        50.71232         0.90965
C         49.99199        52.82813         1.26709
C         48.76789        52.10710         1.45076
C         49.97722        54.25346         1.23138
C         48.74415        54.96628         1.42529
C         49.85231        57.12986         1.02149
C         48.66670        56.39493         1.28894
C         49.82965        58.53538         0.98188
C         48.57355        59.18784         1.12319
C         52.49497        41.54690        -0.91471
C         51.25104        42.21167        -0.71043
C         52.41816        44.30418        -0.16537
C         51.18439        43.56250        -0.36809
C         52.44347        45.68464        -0.01269
C         51.14331        46.47736        -0.08130
C         52.40039        48.53787         0.39604
C         51.19510        47.72163         0.83508
C         52.41630        50.00345         0.68663
C         51.23229        50.60963         1.41577
C         52.41321        52.82350         1.07137
C         51.21740        52.11500         1.17392
C         52.40243        54.25293         0.97813
C         51.17970        54.95317         1.00808
C         52.36015        57.17745         1.00226
C         51.12357        56.41034         0.63199
C         52.34609        58.55960         0.96281
C         51.08601        59.28265         0.86726
C         52.34284        61.38494         0.82761
C         51.12535        60.66785         0.78967
C         55.08333        40.00097        -0.97732
C         55.00283        41.51012        -1.06392
C         53.69120        42.14964        -0.64277
C         54.93967        44.31707        -0.26868
C         53.69792        43.51285         0.02815
C         54.93271        45.72671        -0.10396
C         53.68436        46.41572         0.07047
C         54.87524        48.59392         0.13261
C         53.69030        47.83774         0.20919
C         54.87204        50.03529         0.35708
C         53.70618        50.69270         0.73916
C         54.89924        52.89205         0.62826
C         53.74354        52.11743         1.21347
C         54.85394        54.31962         0.68713
C         53.64340        54.98447         0.90882
C         54.86235        57.19633         0.92045
C         53.62730        56.43723         1.32549
C         54.81785        58.60957         0.86443
C         53.59792        59.30459         0.96724
C         54.83679        61.48459         1.00481
C         53.57263        60.74140         0.93211
C         54.87077        62.87419         1.25468
C         57.32031        39.98767         0.08658
C         56.17573        39.32054        -0.59143
C         57.34504        41.48778         0.06806
C         56.18712        42.22260        -0.46814
C         57.43743        44.35656        -0.63671
C         56.15560        43.61016        -0.39817
C         57.40907        45.80177        -0.22894
C         56.16150        46.46839        -0.09180
C         57.33596        48.63271        -0.11753
C         56.14592        47.91323        -0.00832
C         57.28691        50.09392        -0.29741
C         56.08406        50.80241         0.16957
C         57.26741        53.03135        -0.20659
C         56.07364        52.21086         0.26337
C         57.31426        54.41400         0.40054
C         56.10566        55.06928         0.62419
C         57.32737        57.21751         0.83476
C         56.07419        56.49463         0.78053
C         57.31116        58.60594         0.83899
C         56.06334        59.35038         0.43194
C         57.27463        61.53175         0.85532
C         56.06527        60.81182         0.82748
C         57.30274        62.93225         1.05027
C         56.06649        63.58030         1.26647
C         59.82122        37.15584        -0.21677
C         58.66963        37.79697         0.08064
C         59.79807        39.98022        -0.41497
C         58.66764        39.28528         0.36756
C         59.88805        41.45770        -0.11137
C         58.65947        42.22435         0.34150
C         59.86967        44.31662        -0.26818
C         58.67708        43.64156        -0.17682
C         59.86379        45.77539        -0.38139
C         58.62846        46.47953        -0.20123
C         59.81169        48.63016        -0.69670
C         58.67372        47.95979         0.08339
C         59.85974        50.11669        -0.40972
C         58.58454        50.87624        -0.49464
C         59.76130        52.97285         0.12429
C         58.58325        52.30084        -0.10181
C         59.81940        54.37572         0.48935
C         58.56732        55.09553         0.62251
C         59.80105        57.15878         1.30759
C         58.55477        56.46672         0.93167
C         59.83282        58.65938         1.32494
C         58.53528        59.37079         1.09579
C         59.85202        61.52376         0.76491
C         58.55159        60.80034         0.67399
C         59.82522        62.98857         0.93026
C         58.57806        63.66340         1.02251
C         59.79247        65.77371         0.98570
C         58.59907        65.07181         1.08311
C         62.51955        35.91170        -0.93476
C         62.35327        37.10964        -0.31896
C         61.09377        37.85759        -0.27521
C         62.35358        39.98924        -0.26108
C         61.12069        39.24631        -0.26201
C         62.34651        41.40022        -0.30251
C         61.08994        42.12874        -0.20737
C         62.33644        44.24775        -0.35459
C         61.12872        43.58355        -0.21142
C         62.33350        45.70777        -0.58231
C         61.07884        46.47202        -0.47930
C         62.31515        48.59504        -0.21385
C         61.12905        47.90666        -0.44225
C         62.25609        50.02373         0.28227
C         61.01440        50.76857        -0.13727
C         62.33225        52.97447         0.03113
C         61.03356        52.25513        -0.12490
C         62.32474        54.39704         0.45237
C         61.06345        55.02620         0.66155
C         62.35799        57.20713         1.00732
C         61.10695        56.42177         1.14050
C         62.32170        58.62385         1.06089
C         61.12230        59.36455         1.09884
C         62.31352        61.53559         0.91769
C         61.12323        60.79299         0.99980
C         62.32224        62.95663         0.85995
C         61.05353        63.68956         0.92034
C         62.26613        65.85596         0.68168
C         61.03133        65.11036         0.88385
C         62.27019        67.19218         0.38001
C         64.76291        35.55242         0.16208
C         63.87330        35.25652        -1.07398
C         64.81736        37.06808         0.38084
C         63.55080        37.82638         0.19873
C         64.80744        39.95275         0.02260
C         63.60518        39.29253        -0.03724
C         64.84782        41.38293        -0.30547
C         63.57546        42.12877        -0.30086
C         64.82679        44.25233        -0.06206
C         63.59093        43.53153        -0.30605
C         64.80306        45.66975         0.04312
C         63.62952        46.45508        -0.37425
C         64.72585        48.57047         0.31909
C         63.57249        47.90062        -0.04766
C         64.82867        50.03913        -0.01708
C         63.54241        50.81311         0.14257
C         64.79084        52.94078         0.63835
C         63.56543        52.16543         0.20038
C         64.80122        54.38948         0.12572
C         63.53616        55.10591         0.55878
C         64.84310        57.23469         0.73016
C         63.57150        56.50833         0.79638
C         64.86067        58.63846         0.85921
C         63.61441        59.37444         1.29637
C         64.85098        61.55725         1.09015
C         63.60163        60.78101         0.67831
C         64.79323        63.00035         0.65764
C         63.55474        63.66624         0.75738
C         64.78440        65.83489         0.31779
C         63.57869        65.16291         0.94514
C         64.69886        67.25740         0.04794
C         63.48841        67.90114         0.12765
C         67.41297        32.84923        -0.06891
C         66.20183        33.53572        -0.08127
C         67.35485        35.64464         0.28738
C         66.14695        34.92579         0.06619
C         67.36371        37.08876         0.40500
C         66.09586        37.82240         0.03050
C         67.35848        40.00720         0.38834
C         66.04610        39.26576         0.56577
C         67.36965        41.42430         0.38177
C         66.15511        42.13632        -0.08345
C         67.17113        44.23243         0.75074
C         66.05422        43.57047         0.17567
C         66.93298        45.56224         1.13986
C         65.89398        46.34256         0.60132
C         67.31336        48.54798         0.49355
C         66.00435        47.81654         0.41285
C         67.32133        50.02455         0.73948
C         66.02942        50.74929         0.59909
C         67.30395        52.91076         1.00314
C         66.11659        52.23117         0.29572
C         67.27585        54.39659         0.69931
C         66.09761        55.07962         0.52699
C         67.30076        57.24792         0.53154
C         66.07058        56.52906         0.58438
C         67.28706        58.67459         0.44469
C         66.06628        59.38321         0.66073
C         67.25798        61.52576         0.32888
C         66.08801        60.81208         0.65259
C         67.23367        62.97367         0.21009
C         66.01138        63.69166         0.40042
C         67.26585        65.89008         0.03657
C         65.96927        65.12860         0.21038
C         67.01979        67.09643        -0.89158
C         65.95084        68.03598        -0.29952
C         66.84755        69.77803        -1.79078
C         65.76053        69.20199        -1.24293
C         69.95533        31.43312        -0.21802
C         69.91057        32.80624         0.10636
C         68.62630        33.52264         0.17503
C         69.79091        35.65531         0.79222
C         68.57545        34.92066         0.40095
C         69.79578        37.12649         0.73999
C         68.53968        37.81778         0.58646
C         69.77267        39.99274         0.75597
C         68.54510        39.27968         0.57420
C         69.76438        41.42169         0.85077
C         68.53838        42.15482         0.69512
C         69.70882        44.32765         0.98928
C         68.50298        43.60796         0.86642
C         69.88024        45.77199         0.91022
C         68.80160        46.66918         1.23015
C         69.77418        48.56949        -0.01465
C         68.63507        47.90478         0.69730
C         69.80373        50.05492         0.32803
C         68.61651        50.75962         0.61386
C         69.78589        52.92278         0.50393
C         68.60579        52.19263         0.66767
C         69.78041        54.35060         0.44753
C         68.57265        55.11808         0.96165
C         69.72979        57.22947         0.19895
C         68.53545        56.55110         0.50761
C         69.71666        58.65456         0.02487
C         68.49559        59.38354         0.20015
C         69.67601        61.49896        -0.26559
C         68.47592        60.80487         0.08678
C         69.64547        62.91840        -0.45015
C         68.42866        63.65524        -0.21496
C         69.57326        65.73837        -0.90397
C         68.42935        65.05330        -0.43447
C         69.52365        67.15326        -1.22405
C         68.28764        67.84592        -1.22802
C         69.34773        69.95472        -1.89980
C         68.18546        69.19918        -1.64812
C         69.32985        71.37603        -1.99518
C         72.37060        31.45377        -0.23239
C         71.16400        30.76405        -0.38073
C         72.35243        32.80761         0.09300
C         71.13936        33.49446         0.27179
C         72.31521        35.76536         0.49464
C         71.14327        34.91597         0.70457
C         72.24771        37.11539         0.65537
C         71.00309        37.82327         0.82165
C         72.17324        39.99345         1.18682
C         71.00079        39.27877         0.91086
C         72.16082        41.38991         1.26795
C         70.98302        42.11021         1.08298
C         72.13618        44.21163         0.34223
C         71.03200        43.61232         1.19779
C         72.16283        45.52905         0.04457
C         71.04787        46.38657         0.40588
C         72.24734        48.56237         0.10805
C         71.07883        47.82166         0.21324
C         72.22567        49.98129         0.07963
C         71.05393        50.72491         0.23767
C         72.12531        52.94387        -0.35524
C         71.12925        52.21466         0.51389
C         72.04194        54.28098        -0.51007
C         70.92273        55.04775         0.02432
C         72.12386        57.21032        -0.30276
C         70.94421        56.48752        -0.00953
C         72.11521        58.58870        -0.42139
C         70.91870        59.34191        -0.28370
C         72.05727        61.49317        -0.81758
C         70.89052        60.77644        -0.45448
C         72.02457        62.85699        -1.01113
C         70.82759        63.59984        -0.84529
C         71.94210        65.72905        -1.51619
C         70.80124        65.02545        -1.09409
C         71.89346        67.10107        -1.77961
C         70.70718        67.82132        -1.64837
C         71.82939        70.09432        -1.60984
C         70.67299        69.26120        -2.10702
C         71.73713        71.44836        -1.59161
C         70.49235        72.10723        -1.88108
O         64.04305        37.45803         1.56631
O         67.78918        46.16377         2.05816
O         63.16456        46.13510        -1.72512
O         60.47615        56.57334         2.47387
O         65.74008        41.71932        -1.43073
O         57.74594        50.56533        -1.65761
O         46.55434        52.12648         2.37325
O         45.29366        54.25558         2.60701
O         59.26856        61.08707        -0.56418
O         52.08544        49.49676        -0.66876
O         66.80478        48.14915        -0.84276
O         66.46513        50.34917         1.93026
O         49.29496        45.81224         1.54244
O         44.90346        50.84706        -1.63668
O         56.86921        40.72292         1.26851
O         38.75742        51.95912        -2.96587
O         59.07155        59.20718         2.46672
O         61.74247        52.78468        -1.31573
O         70.46163        35.11408         1.98232
O         48.27028        50.75637        -0.51229
O         62.11124        49.88931         1.74939
H         61.30264        49.35543         1.91807
O         66.09648        37.93021        -1.42106
H         65.60661        37.16113        -1.81078
O         51.47179        50.40300         2.83058
H         50.78619        50.88610         3.33587
O         63.79762        65.33665         2.40484
H         63.83758        66.30264         2.57366
O         63.69426        60.62922        -0.76250
H         62.83867        60.28582        -1.09598
O         55.10857        41.78688        -2.50913
H         54.24789        41.56260        -2.92224
O         70.85109        69.19121        -3.57943
H         70.82505        70.11508        -3.90951
O         50.95181        46.91945        -1.44749
H         51.47755        47.73603        -1.60071
O         63.68054        59.49706         2.74192
H         63.58014        58.60176         3.12738
O         64.51841        35.75015        -2.26760
H         65.14958        35.07001        -2.58014
O         64.90110        61.64306         2.54049
H         65.58166        62.30496         2.78321
O         53.67405        56.38402         2.81420
H         54.61318        56.26045         3.07232
O         59.02939        48.14249         1.50082
H         58.37292        47.65051         2.03919
O         66.42741        68.61486         0.95674
H         67.20440        69.17632         0.74492
O         54.02114        52.07442         2.66782
H         53.97615        52.99766         2.99697
O         69.52079        48.49753        -1.45698
H         70.28543        48.91292        -1.90831
O         58.96991        39.45521         1.77349
H         58.18055        39.18252         2.28791
O         67.19137        52.83570         2.45109
H         67.08755        51.87952         2.68757
O         56.04831        59.35141        -1.04200
H         56.01689        58.41642        -1.33755
O         57.06241        53.24823        -1.64432
H         57.15390        52.35930        -2.06940
O         51.11602        56.39389        -0.85094
H         51.01700        57.32225        -1.15351
O         64.75670        54.40874        -1.31870
H         65.47607        53.80865        -1.63833
O         59.40986        39.88363        -1.82100
H         60.11246        40.30274        -2.36143
O         71.62675        52.32790         1.89348
H         71.59267        53.27838         2.13590
O         57.52495        44.36938        -2.11517
H         58.19006        45.04694        -2.36564
O         64.10109        34.92614         1.27849
H         63.84644        35.64431         1.90564
O         65.08211        50.06721        -1.47329
H         65.74015        49.34025        -1.65227
O         65.90734        39.25758         2.01174
H         65.11815        38.70367         2.23670
O         67.67648        66.33677         1.35791
H         67.08055        67.08048         1.62457
O         51.43098        47.31152         2.19027
H         50.66892        46.74290         2.45628
O         68.73593        55.16023         2.42758
H         68.28741        54.35455         2.78629
O         58.81355        42.33866         1.78911
H         58.74741        41.41696         2.14120
O         40.84180        53.44136        -3.08712
H         40.30541        52.79074        -3.60272
O         66.46449        66.59559        -2.13435
H         67.17552        66.12559        -2.61794
O         59.50718        48.45561        -2.09839
H         60.08810        49.04607        -2.62126
O         66.39215        52.34283        -1.12260
H         65.87989        51.61828        -1.57991
O         43.27080        47.65312         0.67275
H         43.88181        46.99149         1.06342
O         53.76399        43.23497         1.47876
H         52.93806        42.76362         1.71996
O         64.64259        53.03697         2.07224
H         64.68578        52.13634         2.45778
O         71.42175        43.88791         2.58750
H         71.42866        44.86240         2.70095
H         37.75978        49.34384        -1.20502
H         35.77480        50.65686        -0.57362
H         37.96887        54.35051        -0.80772
H         35.88865        53.12725        -0.36623
H         39.38669        48.45126        -2.37064
H         39.67854        55.37791        -1.48639
H         41.39592        47.10303        -1.94268
H         41.35049        56.19538         0.05627
H         45.20690        44.87391        -1.49477
H         43.16151        46.11442        -1.92671
H         44.79540        57.95742         1.80161
H         42.79983        56.85506         1.31319
H         46.53885        43.75153        -0.51853
H         46.45508        59.02793         1.39094
H         48.62343        42.52527        -0.56143
H         48.52146        60.28455         1.08461
H         52.46904        40.52866        -1.33278
H         50.33094        41.64540        -0.90343
H         52.29629        62.48106         0.77021
H         50.19325        61.24511         0.71803
H         54.25544        39.44079        -1.44109
H         53.93530        63.42219         1.43327
H         56.19785        38.22553        -0.70177
H         56.03034        64.66220         1.45135
H         59.82613        36.06191        -0.33507
H         57.75123        37.21640         0.25459
H         59.75639        66.87122         0.99814
H         57.66311        65.63924         1.16730
H         61.65975        35.40996        -1.40445
H         61.32938        67.74952         0.27217
H         63.73656        34.14931        -1.17697
H         63.42013        68.97991        -0.06734
H         67.39452        31.76276        -0.22077
H         65.26690        32.97064        -0.20303
H         66.73502        70.67508        -2.41745
H         64.76431        69.63702        -1.40586
H         69.02646        30.86250        -0.34708
H         68.36644        71.90409        -2.05428
H         73.32836        30.93038        -0.35678
H         71.16690        29.69356        -0.62811
H         73.30641        33.33362         0.23439
H         73.26251        35.30997         0.17352
H         73.16764        37.70059         0.51925
H         73.11967        39.46518         1.36219
H         73.09399        41.92223         1.49830
H         72.98171        43.56829         0.05588
H         73.00871        45.95854        -0.51215
H         73.22487        48.05979         0.15627
H         73.19237        50.50377         0.05830
H         72.97926        52.39405        -0.77726
H         72.81319        54.80736        -1.09062
H         73.07648        56.67765        -0.42679
H         73.06434        59.09712        -0.63597
H         73.00832        60.96525        -0.96403
H         72.95270        63.36458        -1.30325
H         72.89750        65.20849        -1.66072
H         72.80169        67.60616        -2.13657
H         72.78418        69.60017        -1.37822
H         72.60715        72.06238        -1.31663
H         70.45914        73.20493        -1.90460
