         252
 CSIRO Nanostructure Databank - Neutral Graphene Oxide Data Set
C         30.61971        31.55560         1.53074
C         30.88335        32.74251         1.81125
C         30.90315        35.91163         1.81264
C         30.96513        37.14759         1.90182
C         30.88074        40.36059         1.91735
C         30.82779        41.60614         1.92207
C         32.93909        28.82550         0.43703
C         31.94537        29.41269         0.88205
C         32.87182        31.62581         0.45489
C         31.51527        30.83100         0.54801
C         33.02114        32.93594         0.96294
C         31.98407        33.61442         1.67493
C         33.33221        35.82406         1.85001
C         32.04987        34.99587         2.25867
C         33.32185        37.36389         1.82564
C         32.02361        38.10775         1.87152
C         33.26890        40.27889         1.75034
C         31.99071        39.47302         1.82457
C         33.25920        41.79397         1.84439
C         31.89359        42.53659         1.77786
C         33.10817        44.38092         1.14120
C         31.95071        43.86172         1.43776
C         35.60247        27.36486         0.07525
C         35.37033        28.62612        -0.68630
C         34.06825        29.38711        -0.32260
C         35.27902        31.64588        -0.47733
C         33.98655        30.92843        -0.24299
C         35.45930        32.99299         0.14295
C         34.34432        33.63259         0.88807
C         35.51489        35.89378         0.43513
C         34.46971        35.11491         1.17026
C         35.41282        37.36718         0.31548
C         34.48194        38.13973         1.20138
C         35.46757        40.35715         0.49707
C         34.40920        39.61537         1.08705
C         35.55514        41.79881         0.59715
C         34.60014        42.55660         1.53671
C         35.56725        44.76367         0.58672
C         34.38852        44.01639         1.01162
C         35.57203        46.10035        -0.02486
C         37.87748        27.47483         0.92364
C         36.57266        26.86757         0.64691
C         37.73941        28.99930         0.61860
C         36.65380        29.43016        -0.35079
C         37.84737        31.65508        -0.38220
C         36.61232        30.86167        -0.56843
C         37.77941        33.08765        -0.56399
C         36.62960        33.79507        -0.27970
C         37.73206        36.02187        -0.60644
C         36.57565        35.24913        -0.19704
C         37.74570        37.40415        -0.71257
C         36.48819        38.17100        -0.44767
C         37.34110        40.46598        -1.01841
C         36.46051        39.66892        -0.28310
C         37.61619        41.82130        -0.75475
C         36.65960        42.49512         0.05312
C         37.66374        44.62287        -0.97246
C         36.78125        43.98020         0.12087
C         37.89007        46.17500        -0.74307
C         36.47292        46.68287        -0.63301
C         40.34868        24.66151         0.41071
C         39.32919        25.29173         0.74120
C         40.46692        27.39544         0.38886
C         39.20718        26.74198         0.87488
C         40.45221        28.88081         0.34887
C         39.12106        29.63249         0.32358
C         40.30959        31.73192        -0.40714
C         39.06698        31.02954        -0.19301
C         40.31455        33.10100        -0.61543
C         39.03401        33.80673        -0.81220
C         40.28354        35.94486        -0.32563
C         39.01463        35.29128        -0.82355
C         40.27538        37.39725        -0.65840
C         39.05411        38.04572        -0.91020
C         40.29288        40.17951        -1.15246
C         39.17539        39.36953        -1.38271
C         40.21497        41.64926        -1.41288
C         38.88644        42.44427        -1.25430
C         40.19173        44.60770        -1.28705
C         39.00242        43.92158        -1.12224
C         40.22749        46.05669        -1.35706
C         38.87601        46.69776        -1.79495
C         40.07363        48.76720        -1.26278
C         39.09696        48.17541        -1.74358
C         42.87807        24.60856        -0.21970
C         41.62855        25.17253         0.07028
C         42.82505        27.31274        -0.44594
C         41.62395        26.64717         0.00514
C         42.75726        28.74635        -0.78678
C         41.74502        29.62727        -0.06688
C         42.68417        31.68657        -1.36595
C         41.42591        30.85717        -0.94309
C         42.80691        33.04485        -0.62409
C         41.53483        33.84114        -0.76179
C         42.76751        35.99243        -0.83817
C         41.54843        35.22941        -0.76532
C         42.73753        37.36777        -0.63546
C         41.49396        38.10157        -0.66888
C         42.73321        40.25672        -0.63208
C         41.50447        39.52639        -0.78606
C         42.60193        41.74098        -0.41051
C         41.52065        42.40113        -1.26363
C         42.65012        44.63446        -0.62885
C         41.50513        43.90247        -1.23957
C         42.55679        46.03175        -0.50184
C         41.36078        46.76681        -0.93485
C         42.47733        48.81071        -0.29425
C         41.33141        48.24500        -0.84660
C         43.91257        25.26035        -0.52600
C         45.26181        27.33692        -1.13089
C         44.04889        26.65281        -0.75058
C         45.31854        28.76984        -1.35466
C         44.00256        29.45367        -1.25605
C         45.14085        31.62988        -1.45400
C         43.99457        30.92120        -1.24802
C         44.96809        33.04901        -1.72619
C         43.98626        33.81339        -1.20015
C         45.32080        35.98382        -0.90019
C         44.01884        35.32317        -1.39997
C         45.26749        37.39428        -0.39356
C         43.94599        38.11828        -0.13620
C         45.13662        40.34611        -0.15425
C         43.94693        39.60666        -0.42203
C         45.11246        41.75582        -0.11568
C         43.91798        42.48942        -0.35960
C         44.98529        44.65414         0.19875
C         43.85480        43.91709        -0.28455
C         44.87532        46.04201         0.40197
C         43.70336        46.74447         0.04058
C         43.47469        48.12084         0.07383
C         47.71264        27.03902        -0.67217
C         46.53498        26.76363        -1.06290
C         48.27233        28.31209        -0.85795
C         46.47308        29.55753        -1.55044
C         47.66202        31.76953        -1.43845
C         46.47993        31.02664        -1.48141
C         48.04581        33.26628        -1.43696
C         46.88577        34.17727        -1.74961
C         47.94712        36.09594        -0.77947
C         46.67602        35.40408        -1.21717
C         47.74649        37.46495        -0.16533
C         46.52071        38.25974        -0.56310
C         47.65786        40.38184         0.22695
C         46.37495        39.57035         0.25749
C         47.66815        41.74679         0.26433
C         46.34792        42.46166         0.33743
C         47.55382        44.74675         0.64699
C         46.25634        43.94275         0.54782
C         47.20735        46.10141         1.13877
C         46.10105        46.60400         0.90331
C         49.58239        28.71705         1.28598
C         48.99039        29.10196         0.06995
C         49.22991        31.50591         0.89794
C         49.01977        30.55001        -0.09416
C         49.53129        32.91945         0.69867
C         48.80621        33.76309        -0.17057
C         49.84632        35.80155         0.82718
C         48.87853        35.17990        -0.00897
C         50.07320        37.31823         0.71105
C         48.80261        38.08370         0.40125
C         50.16351        40.23432         0.83071
C         48.89423        39.57237         0.36174
C         50.15417        41.74272         1.01153
C         48.93504        42.51095         0.52584
C         50.05144        44.44769         1.46146
C         48.84288        44.02724         0.74381
C         50.41961        29.16118         2.14247
C         51.22619        31.51091         2.85946
C         50.29396        30.46760         2.64317
C         51.16318        32.72400         2.57938
C         50.80415        33.52269         1.36520
C         51.68095        35.79264         2.28459
C         50.75040        35.00369         1.53612
C         51.84967        37.02542         2.33075
C         50.77407        38.01590         1.94541
C         52.12197        40.26336         2.12034
C         51.17135        39.41958         1.58048
C         52.36484        41.52734         2.07924
C         51.08355        42.34353         2.15179
C         51.02253        43.81492         1.88046
O         50.13412        42.33609        -0.30220
O         49.04345        31.08265         2.25914
O         45.92764        33.59479        -2.57484
O         34.46859        35.36063         2.62086
O         36.75914        44.59513         1.43922
O         38.06400        39.87084        -2.05271
O         35.27326        37.71038        -1.11277
O         45.37780        36.27417         0.54942
O         34.41984        37.83216         2.64758
O         39.41211        42.01284        -2.55461
O         39.09452        34.58757        -2.08947
O         46.12543        43.03676         1.69964
O         48.43524        44.69589        -0.48443
O         49.97722        39.90262        -0.57973
O         35.87120        31.39092        -1.75313
O         33.46700        41.00300         3.05164
O         33.56157        30.14223        -1.43266
O         38.60146        27.23101         2.12399
O         39.92280        29.53629         1.55959
O         47.69505        28.98294        -1.98130
O         48.88444        31.02626        -1.41486
O         42.96749        28.97523        -2.21423
O         35.37537        32.87675         1.61835
O         41.93160        43.13171        -2.43533
O         43.00377        32.76046         0.77810
H         43.01791        33.60842         1.26835
O         42.03528        41.85977         0.94986
H         42.64699        41.40851         1.57100
O         37.32808        29.57848         1.88195
H         38.00499        29.30876         2.54629
O         30.92242        30.81139        -0.72009
H         30.13665        30.22803        -0.70658
O         38.51417        46.38375         0.50362
H         37.93152        46.00416         1.20978
O         49.03265        33.42212        -2.49246
H         49.65445        32.66162        -2.42431
O         32.01435        34.87547         3.65863
H         32.17766        35.74868         4.07000
O         40.23601        35.81953         1.13346
H         40.93691        36.39505         1.50772
O         46.21003        39.15336         1.63936
H         45.95937        39.93757         2.17156
O         36.89754        44.39025        -2.16386
H         37.37426        44.79282        -2.92684
O         48.66795        36.41628        -2.03760
H         48.86955        35.56122        -2.48956
O         50.43094        42.08901         3.38111
H         50.96684        42.46645         4.10917
O         50.97974        37.45553        -0.39760
H         50.46393        37.32821        -1.22667
O         38.51651        46.25818        -3.09315
H         39.15889        46.61035        -3.74333
O         42.53025        32.01791        -2.76490
H         42.68769        31.19499        -3.27829
O         51.84684        33.26389         0.38670
H         52.58764        33.88600         0.55446
O         49.81485        38.08610         2.99806
H         50.19949        38.58367         3.74961
O         46.63104        38.61971        -1.95416
H         47.28070        38.01947        -2.38541
O         35.33860        28.37473        -2.08226
H         34.72962        29.02594        -2.50118
O         40.80922        30.30023        -2.12903
H         40.66295        31.03798        -2.76177
O         44.00109        35.60101        -2.82260
H         43.29879        35.05698        -3.23688
O         43.72647        38.08352         1.32035
H         44.28197        37.34743         1.67072
O         35.29600        42.70404         2.77711
H         34.93407        42.02464         3.39792
O         42.41233        30.03725         1.13247
H         41.72147        30.32132         1.77487
