         404
 CSIRO Nanostructure Databank - Neutral Graphene Oxide Data Set
C          1.44285         3.00941        -0.34303
C          0.36245         3.27843         0.46696
C          1.43164         5.36512         1.10008
C          0.37988         4.46082         1.22632
C          1.30810         7.66348         1.24784
C          0.10530         8.31587         1.18917
C          1.21199        10.43518         0.83238
C          0.05760         9.70386         0.83400
C          1.16361        11.92421         0.87831
C          0.03532        12.64679         0.27321
C          1.23319        14.79653         0.35814
C          0.05699        13.99211         0.09020
C          1.20689        16.25348         0.19422
C          0.01287        16.95333        -0.02220
C          1.16125        19.11614        -0.08576
C         -0.01035        18.34906        -0.13282
C          1.12642        20.57123        -0.04896
C         -0.03602        21.31809         0.01733
C          1.12795        23.49210        -0.11831
C         -0.03211        22.73868        -0.01821
C          1.12474        24.91924        -0.37385
C         -0.03291        25.67845        -0.33928
C          1.13018        27.83092        -0.55588
C         -0.03050        27.09733        -0.42044
C          1.15028        29.29139        -0.48488
C         -0.04255        30.03916        -0.68072
C          1.15268        32.13405        -0.31149
C         -0.03654        31.41340        -0.60321
C          1.15912        33.56489        -0.17343
C         -0.04629        34.35564        -0.36927
C          1.10651        36.46997         0.14418
C         -0.08318        35.70763        -0.26023
C          1.20093        37.93641        -0.08506
C          3.71047         3.43163        -1.05223
C          2.55273         3.90385        -0.41400
C          3.68649         6.10326         0.06180
C          2.55564         5.18545         0.24533
C          3.69523         7.56272         0.38255
C          2.55298         8.25382         0.79644
C          3.80034        10.49965         0.97383
C          2.51097         9.72953         1.01725
C          3.75709        11.99595         0.90780
C          2.45867        12.71538         1.03282
C          3.64250        14.93344         0.90361
C          2.41279        14.15725         0.70147
C          3.66059        16.35606         0.52310
C          2.42656        17.00743         0.25708
C          3.65332        19.12868        -0.00375
C          2.41983        18.42630         0.04833
C          3.63294        20.56441        -0.47566
C          2.41404        21.28961         0.04361
C          3.69157        23.50206        -0.33009
C          2.42417        22.80163        -0.00419
C          3.69969        24.90212        -0.48588
C          2.39896        25.59017        -0.71177
C          3.68479        27.85383        -0.64845
C          2.39028        27.10996        -0.82096
C          3.58201        29.19215         0.01639
C          2.34461        29.98142        -0.22414
C          3.57862        32.09748         0.21621
C          2.36631        31.40346        -0.11318
C          3.60234        33.49882         0.25863
C          2.37456        34.21330         0.08244
C          3.66837        36.36262        -0.00663
C          2.37726        35.67608         0.27366
C          3.67706        37.85718        -0.17083
C          2.38140        38.58167        -0.12408
C          6.09762         3.54703        -1.38977
C          4.87827         4.19531        -1.03439
C          5.99794         6.38679        -0.91259
C          4.82540         5.55950        -0.56185
C          6.08051         7.77606        -0.42460
C          4.92156         8.36533         0.13404
C          6.15850        10.51584         0.20619
C          4.98276         9.76587         0.45497
C          6.19599        11.95148         0.64032
C          4.92271        12.69092         0.81244
C          6.18262        14.94221         0.66929
C          4.96394        14.17214         0.98190
C          6.13749        16.35528         0.55887
C          4.87897        17.05831         0.48235
C          6.12152        19.18955         0.11269
C          4.87693        18.46480         0.19877
C          6.10458        20.60294        -0.14589
C          4.92063        21.32254        -0.26767
C          6.12810        23.50103        -0.36604
C          4.91351        22.76982        -0.34738
C          6.14179        24.91429        -0.30733
C          4.92187        25.61978        -0.45847
C          6.19434        27.78115         0.02590
C          4.97488        27.10198        -0.50399
C          6.16056        29.18404         0.34315
C          4.83081        29.85789         0.48555
C          6.05595        32.08761         0.94057
C          4.76608        31.34492         0.69686
C          6.10000        33.53379         0.65557
C          4.86113        34.23679         0.47380
C          6.13789        36.40036         0.65798
C          4.88769        35.62674         0.34226
C          6.13180        37.85065         0.20703
C          4.95477        38.55008         0.01859
C          8.55110         3.55306        -1.37875
C          7.31670         4.22423        -1.40594
C          8.55728         6.45580        -1.59277
C          7.24714         5.70464        -1.43409
C          8.51993         7.85693        -1.01648
C          7.31803         8.49752        -0.60463
C          8.50685        10.72340        -0.63902
C          7.31877         9.90172        -0.29792
C          8.56898        12.15871        -0.26993
C          7.42827        12.77327         0.46271
C          8.59230        14.96731         0.28117
C          7.39912        14.25947         0.45145
C          8.59019        16.38508         0.37425
C          7.35353        17.08633         0.41506
C          8.61779        19.21444         0.22449
C          7.35756        18.51056         0.26185
C          8.64969        20.60547        -0.01560
C          7.39519        21.27514        -0.37066
C          8.66185        23.50379        -0.25419
C          7.40239        22.78954        -0.50160
C          8.62008        24.92082        -0.17323
C          7.40435        25.62585        -0.18884
C          8.63474        27.70896         0.42420
C          7.39778        27.05603         0.04819
C          8.56662        29.09503         0.90302
C          7.31628        29.85115         0.75546
C          8.66311        32.07370         0.88451
C          7.33342        31.29735         1.06114
C          8.56334        33.46567         0.41496
C          7.35326        34.19095         0.43341
C          8.54309        36.32832         0.00942
C          7.37876        35.63716         0.25848
C          8.58902        37.78687         0.03384
C          7.38308        38.50992         0.11484
C         11.03805         3.53040        -1.13501
C          9.78157         4.25320        -1.20340
C         11.03918         6.35925        -1.02205
C          9.76195         5.65408        -1.15424
C         11.10177         7.85448        -1.04481
C          9.79367         8.59335        -1.16969
C         11.07409        10.70418        -0.42333
C          9.82856        10.06891        -0.90741
C         11.06666        12.10222        -0.13275
C          9.86841        12.82121        -0.12244
C         11.10574        14.92377         0.32869
C          9.85686        14.30856        -0.21734
C         11.05553        16.33048         0.67892
C          9.82437        17.09997         0.44141
C         11.11029        19.22474         0.35717
C          9.85448        18.50235         0.39258
C         11.10365        20.62887         0.15284
C          9.86598        21.34027        -0.02110
C         11.12006        23.49452        -0.00463
C          9.86729        22.77247        -0.13418
C         11.14315        24.89045         0.03793
C          9.90921        25.68552        -0.31048
C         11.11832        27.73818         0.45219
C          9.86183        27.05987         0.30292
C         11.16147        29.14599         0.57975
C          9.95405        29.89793         0.90781
C         11.08772        31.98584         0.22641
C          9.92012        31.33444         0.62986
C         11.07203        33.40897        -0.04193
C          9.76429        34.07330        -0.15478
C         11.06187        36.29457        -0.31805
C          9.76752        35.60822        -0.36399
C         11.05575        37.74196        -0.24072
C          9.82292        38.44019        -0.11536
C         13.51725         3.50685        -0.89384
C         12.25040         4.15613        -0.87597
C         13.44550         6.35003        -0.21015
C         12.20058         5.59302        -0.50009
C         13.47978         7.83953        -0.21989
C         12.30247         8.55583        -0.49739
C         13.51274        10.63966         0.02127
C         12.28809         9.96879        -0.31314
C         13.51815        12.06512         0.15056
C         12.31409        12.79110         0.10142
C         13.56788        14.91637         0.40075
C         12.30484        14.21503         0.33148
C         13.60490        16.32254         0.41889
C         12.39464        17.09300         0.70670
C         13.58395        19.20089         0.23262
C         12.36035        18.53536         0.43088
C         13.57976        20.62675         0.09767
C         12.34647        21.33514         0.08385
C         13.58751        23.45553        -0.01672
C         12.35496        22.76036         0.04060
C         13.61848        24.88214         0.13663
C         12.37761        25.59761         0.21851
C         13.59062        27.73115         0.66288
C         12.34911        27.00621         0.38376
C         13.62734        29.18306         0.43439
C         12.38328        29.86465         0.39275
C         13.56832        31.95654        -0.03262
C         12.35439        31.27672         0.20038
C         13.50680        33.37263        -0.43932
C         12.24044        34.12261        -0.28616
C         13.52528        36.28902        -0.32141
C         12.25536        35.57082        -0.36196
C         13.52015        37.76166        -0.28867
C         12.26410        38.43914        -0.30454
C         15.98204         3.55420        -0.74588
C         14.72928         4.19638        -0.71178
C         15.99182         6.39111        -0.15144
C         14.72934         5.66373        -0.50847
C         15.85535         7.67973         0.65126
C         14.67334         8.49410         0.17013
C         15.97415        10.58305         0.49088
C         14.71910         9.90470         0.23197
C         15.98931        12.01410         0.37161
C         14.77256        12.75113         0.27761
C         16.02079        14.87555         0.15486
C         14.78868        14.17522         0.28012
C         16.03384        16.30174         0.03144
C         14.81695        17.02904         0.16837
C         16.05267        19.12270        -0.10262
C         14.82906        18.45437         0.13393
C         16.10376        20.60297         0.17999
C         14.80755        21.33822        -0.05272
C         16.04655        23.46506        -0.57870
C         14.80729        22.72395        -0.14294
C         16.08371        24.89888        -0.12680
C         14.87625        25.55439         0.18613
C         16.16060        27.73023         0.35723
C         14.92479        26.96657         0.57785
C         16.12634        29.17294         0.35572
C         14.85259        29.87744         0.31661
C         16.05805        32.04192         0.04025
C         14.82131        31.28900         0.07262
C         16.03969        33.43485        -0.13050
C         14.81116        34.15107        -0.52138
C         15.99309        36.38181        -0.35399
C         14.72824        35.61668        -0.33546
C         15.96885        37.79914         0.17027
C         14.69508        38.49003        -0.20450
C         18.40532         3.46340        -0.30420
C         17.18602         4.21216        -0.39304
C         18.32724         6.17176         0.61469
C         17.20285         5.58001         0.01376
C         18.30838         7.55804         1.06878
C         17.17559         8.42767         0.83363
C         18.38270        10.67197         1.02352
C         17.17322         9.85967         0.82992
C         18.44376        12.03457         0.58388
C         17.22335        12.73513         0.33077
C         18.48253        14.85109        -0.01283
C         17.24148        14.14574         0.14620
C         18.49023        16.25267        -0.29437
C         17.24661        16.99460        -0.24271
C         18.41218        19.15092        -0.96564
C         17.24148        18.40598        -0.34796
C         18.53263        20.59115        -0.49319
C         17.32934        21.32544        -0.31617
C         18.56116        23.43839        -0.42470
C         17.33424        22.71862        -0.34247
C         18.56468        24.87249        -0.33924
C         17.31808        25.58704        -0.11563
C         18.63287        27.68446         0.21541
C         17.33655        26.99978         0.12832
C         18.62423        29.22261         0.29507
C         17.32111        29.91157         0.24041
C         18.55949        32.03331         0.09043
C         17.32067        31.33911         0.15413
C         18.59560        33.48042         0.28677
C         17.22749        34.21767         0.15652
C         18.53531        36.40473         0.05820
C         17.29355        35.65293        -0.22351
C         18.48368        37.84148         0.01961
C         17.25674        38.52357        -0.06908
C         19.52148         4.02435         0.25260
C         20.63542         5.86417         1.43526
C         19.50799         5.36243         0.76421
C         20.58090         7.13147         2.00823
C         19.44913         7.93360         1.82858
C         20.74269        10.90962         1.71543
C         19.52392        10.22157         1.71535
C         20.83843        12.14061         1.07487
C         19.67868        12.75270         0.56333
C         20.90700        14.82276        -0.14995
C         19.70556        14.13850         0.11496
C         20.89845        16.16620        -0.51684
C         19.71120        16.91567        -0.55291
C         20.94721        19.12630        -0.54050
C         19.76368        18.34987        -1.07755
C         20.97139        20.47347        -0.45687
C         19.76129        21.27474        -0.54169
C         21.00263        23.44250        -0.58441
C         19.78715        22.70667        -0.48726
C         21.00146        24.81812        -0.58033
C         19.79890        25.56536        -0.41789
C         20.98566        27.76734        -0.48153
C         19.84671        27.00659        -0.26264
C         20.97706        29.18352        -0.43801
C         19.84013        29.92382        -0.15313
C         20.93763        32.14790        -0.46767
C         19.79680        31.37281        -0.19827
C         20.92869        33.55500        -0.41595
C         19.80280        34.25732        -0.00617
C         20.96067        36.47387         0.19560
C         19.76762        35.71762         0.10703
C         20.92301        37.87466         0.17896
C         19.72025        38.55679         0.07181
O         15.48700         6.42221        -1.51842
O          6.26896         6.24642        -2.37906
O          4.56827        27.75059        -1.79360
O          4.29393        14.64563         2.19087
O         12.62276         5.82449         0.89224
O          3.72826        36.94579        -1.36619
O          3.25732        10.04869         2.26007
O          8.09648        31.76548         2.20426
O         18.81755        28.39705         1.48555
O          2.35121        26.27664        -2.01301
O          9.57417        34.68691        -1.47791
O         14.28858        27.26646         1.86705
O          7.14899        12.16627         1.76405
O         11.42064         7.09664        -2.25829
O         19.43056         9.11353         2.57141
O          7.45597        21.92566        -1.69513
O         17.83911        33.95975         1.44699
O         17.97100        19.48194        -2.28586
O          9.87319         9.55628        -2.28549
O          8.20409        11.77860        -1.65650
O          9.29700        29.41152         2.11096
O         11.71737        16.68956         1.93924
O          5.14258        31.75241         2.05289
O          1.61259        12.40627         2.18821
O         16.76560        36.04017        -1.54677
O          3.96271        29.12799         1.43700
O          2.59081        22.04191         1.26953
O         14.16064        33.64151        -1.73221
O          1.34598         6.45917         1.94863
O          1.66026        36.10879         1.47356
O          9.85878        14.58690        -1.68080
H          9.34428        13.87089        -2.11699
O         15.89396        37.60306         1.64593
H         15.85146        38.49097         2.06062
O         15.93395        23.53693        -2.05077
H         16.10567        22.63750        -2.40563
O         16.27088        20.65588         1.65375
H         15.49339        20.21132         2.05515
O          3.43639        20.51398        -1.93114
H          4.25226        20.14842        -2.33453
O         15.50919         7.22175         2.00242
H         15.40267         8.01013         2.57537
O         10.03716        25.93730        -1.76718
H         10.03326        25.06487        -2.21698
O         20.06076        18.19763        -2.48976
H         19.32407        18.69695        -2.94883
O          6.16747        36.49398         2.13016
H          6.18162        35.57928         2.48677
O          8.74552         6.64681        -3.02766
H          7.86205         6.88366        -3.39327
H          1.49924         2.06866        -0.90808
H         -0.47826         2.57674         0.54585
H         -0.42933         4.68811         1.93169
H         -0.80692         7.81589         1.53762
H         -0.92134        10.19323         0.74081
H         -0.83516        12.07138        -0.07348
H         -0.82524        14.47602        -0.35090
H         -0.94295        16.41469        -0.06889
H         -0.98408        18.84421        -0.24980
H         -1.01430        20.81727         0.02345
H         -1.00948        23.23943        -0.05507
H         -0.99692        25.19058        -0.14108
H         -0.98920        27.61255        -0.26980
H         -0.98086        29.51857        -0.91342
H         -0.97899        31.95137        -0.76718
H         -0.96759        33.83748        -0.66787
H         -1.00291        36.25680        -0.51110
H          0.25946        38.50469        -0.13752
H          3.72188         2.42028        -1.48267
H          2.41042        39.67867        -0.21017
H          6.08002         2.45603        -1.53045
H          4.99177        39.63912        -0.14260
H          8.55835         2.45356        -1.40539
H          7.40471        39.60147        -0.02498
H         11.01845         2.45152        -1.35030
H          9.84628        39.53992        -0.09106
H         13.55248         2.42618        -1.10042
H         12.25468        39.53904        -0.28454
H         16.02032         2.47462        -0.95592
H         14.65228        39.59032        -0.19612
H         18.41894         2.42309        -0.65897
H         17.25557        39.62429        -0.09718
H         20.44939         3.44156         0.34579
H         21.52774         5.23404         1.55455
H         21.40818         7.50956         2.62232
H         21.60082        10.48633         2.25302
H         21.79689        12.67585         1.07744
H         21.86740        14.29049        -0.10958
H         21.85287        16.64132        -0.78019
H         21.89040        18.57906        -0.39153
H         21.91769        20.97531        -0.20504
H         21.95909        22.91121        -0.68043
H         21.96099        25.34682        -0.65579
H         21.92300        27.28090        -0.78338
H         21.90833        29.69920        -0.71058
H         21.88142        31.65108        -0.72850
H         21.85148        34.09455        -0.67102
H         21.92980        35.96192         0.26821
H         21.86491        38.43782         0.23898
H         19.70523        39.65555         0.04229
