         638
 CSIRO Nanostructure Databank - Neutral Graphene Oxide Data Set
C         23.21996        69.43871         2.44229
C         23.25699        70.80301         3.06586
C         21.96567        71.56543         2.97951
C         23.17385        73.67655         3.05599
C         21.96897        72.93675         3.06307
C         25.60196        65.38549         1.20716
C         25.55502        66.75174         1.22650
C         24.22456        67.45729         1.33734
C         25.58298        69.57505         1.80625
C         24.32323        68.85352         1.91001
C         25.60096        70.97784         2.14217
C         24.43977        71.61744         2.61768
C         25.61132        73.77765         2.61333
C         24.41633        73.03495         2.78718
C         27.88079        61.24848         0.00871
C         28.15919        62.54495         0.78336
C         26.88976        63.30746         1.01740
C         28.00800        65.44727         0.56485
C         26.83616        64.67414         0.95851
C         27.95195        66.88303         0.66055
C         26.76728        67.52421         1.05073
C         27.97308        69.68835         1.22803
C         26.74730        68.94367         1.33542
C         27.99140        71.07916         1.55248
C         26.79905        71.73401         1.96950
C         28.03562        73.86906         2.12527
C         26.81339        73.14263         2.25143
C         30.35877        56.99289        -0.63850
C         30.30999        58.37216        -0.68737
C         29.13977        59.12417        -0.33074
C         30.36456        61.25748        -0.52255
C         29.15918        60.49490        -0.25973
C         30.34495        62.69846        -0.42323
C         29.24255        63.36634         0.10089
C         30.23765        65.60697        -0.56284
C         29.15329        64.79251         0.10015
C         30.31063        67.01186        -0.03015
C         29.16996        67.64616         0.43175
C         30.36252        69.80571         0.72981
C         29.16211        69.06098         0.77213
C         30.40752        71.13843         1.17902
C         29.21839        71.80395         1.52385
C         30.45712        73.95424         1.63843
C         29.23472        73.23122         1.79474
C         32.92967        52.77161        -0.33742
C         32.87397        54.17521        -0.45323
C         31.63704        54.86734        -0.56748
C         32.82875        56.96956        -0.89041
C         31.59630        56.25938        -0.74355
C         32.80942        58.38725        -1.25750
C         31.48147        59.14282        -1.14872
C         32.77584        61.30825        -1.12663
C         31.52673        60.59994        -0.94743
C         32.79872        62.71147        -1.02241
C         31.48578        63.45582        -1.08053
C         32.78222        65.58282        -0.64076
C         31.56995        64.89479        -0.62881
C         32.82707        67.03219        -0.48107
C         31.54966        67.75653        -0.32503
C         32.85298        69.88269         0.30254
C         31.56699        69.22438         0.11274
C         32.91787        71.17863         0.82037
C         31.72233        71.80347         1.49225
C         32.88325        74.01149         1.22097
C         31.68108        73.31272         1.38726
C         35.44691        48.49794         0.30474
C         35.34378        49.97335         0.63064
C         34.17249        50.69635         0.03652
C         35.36184        52.87351         0.06180
C         34.15503        52.09278        -0.07050
C         35.34687        54.24247        -0.22974
C         34.10176        54.92201        -0.45186
C         35.29941        57.07404        -0.81759
C         34.06574        56.32190        -0.69157
C         35.28801        58.43409        -1.16166
C         34.06129        59.16938        -1.24433
C         35.24040        61.34419        -1.53544
C         34.00200        60.56673        -1.31234
C         35.26586        62.78175        -1.21488
C         34.02135        63.46906        -1.03703
C         35.27334        65.65721        -1.20430
C         34.01684        64.87579        -0.87544
C         35.29399        67.07441        -0.67273
C         34.04018        67.74150        -0.51275
C         35.33218        69.93462        -0.17264
C         34.02926        69.21992        -0.30482
C         35.40358        71.15898         0.72281
C         34.12028        71.91825         0.81844
C         35.34402        74.05338         0.90423
C         34.13137        73.33821         1.00757
C         37.62265        44.23388        -0.85810
C         37.68573        45.73003        -0.68204
C         36.61341        46.41535        -0.22110
C         37.69134        48.64101        -0.81493
C         36.54658        47.86881        -0.18194
C         37.83912        49.99546        -0.16669
C         36.66839        50.70659         0.41551
C         37.77657        52.82818        -0.44186
C         36.67214        52.24100         0.48934
C         37.85760        54.32551        -0.25268
C         36.57783        55.01347        -0.29871
C         37.77772        57.14626        -0.54012
C         36.54351        56.38116        -0.56861
C         37.77232        58.45081        -0.92775
C         36.58431        59.06062        -1.63402
C         37.76039        61.37211        -1.32367
C         36.55072        60.59858        -1.66161
C         37.73957        62.71702        -1.07904
C         36.50291        63.47626        -1.10839
C         37.79370        65.56624        -0.76111
C         36.54072        64.87735        -0.94432
C         37.77910        67.01000        -0.56271
C         36.54377        67.72639        -0.49478
C         37.76344        69.86300        -0.08271
C         36.59464        69.16061        -0.22837
C         37.78957        71.32015         0.08357
C         36.60677        72.00022         0.41688
C         37.79588        74.13332         0.42620
C         36.58604        73.41351         0.58802
C         40.10586        40.22072         0.78729
C         40.12109        41.57375         0.32113
C         38.91896        42.24433        -0.03009
C         40.15515        44.22355        -0.73553
C         38.92660        43.55727        -0.49416
C         40.17984        45.62413        -1.22727
C         38.87087        46.43480        -1.31376
C         40.23881        48.53767        -0.74492
C         38.99978        47.87740        -0.85552
C         40.30847        49.97793        -0.50290
C         39.09731        50.74365        -0.42778
C         40.34815        52.82574         0.08527
C         39.09141        52.11262        -0.31908
C         40.33176        54.30833        -0.20704
C         39.05169        55.00526        -0.20005
C         40.30316        57.16860        -0.53722
C         39.04426        56.51674         0.01861
C         40.29345        58.45172        -0.95445
C         39.02845        59.21039        -0.84663
C         40.30117        61.34509        -1.42659
C         39.03390        60.65691        -1.10866
C         40.19286        62.83732        -1.58660
C         39.04253        63.37069        -0.66175
C         40.31525        65.54803        -0.40147
C         38.99779        64.87152        -0.66612
C         40.25089        67.04597        -0.49288
C         39.02453        67.69183        -0.39579
C         40.23094        69.87649        -0.51329
C         39.05731        69.12880         0.06360
C         40.21764        71.37102        -0.48441
C         38.98649        72.05658        -0.06525
C         40.24774        74.18144        -0.03586
C         39.00450        73.47129         0.10816
C         42.60250        36.08951         1.97297
C         42.48444        37.46382         1.79308
C         41.29795        38.12617         1.38611
C         42.54971        40.23829         1.08852
C         41.27469        39.52592         1.14409
C         42.58001        41.71967         0.81961
C         41.34964        42.27418         0.14884
C         42.67009        44.19763        -0.74602
C         41.36614        43.55488        -0.41985
C         42.74889        45.66615        -0.83285
C         41.49510        46.39975        -1.11180
C         42.74403        48.47255        -0.36553
C         41.46922        47.83149        -0.85783
C         42.78266        49.95647        -0.60009
C         41.55258        50.66374        -0.50607
C         42.80569        52.76367        -0.40828
C         41.59619        52.09626        -0.36296
C         42.81036        54.23028        -0.21430
C         41.52224        54.96609        -0.30430
C         42.72887        56.97805        -1.23031
C         41.61426        56.47305        -0.26962
C         42.76827        58.47568        -1.30772
C         41.46414        59.14588        -1.62722
C         42.74481        61.36753        -1.44339
C         41.47667        60.65679        -1.47047
C         42.70218        62.83873        -1.34596
C         41.51162        63.52973        -1.36771
C         42.76479        65.69461        -0.91787
C         41.45996        65.03737        -1.32780
C         42.77338        67.04766        -0.61435
C         41.51001        67.77477        -0.49681
C         42.76421        69.93893        -0.20240
C         41.51768        69.15405        -0.47313
C         42.68179        71.40842        -0.56371
C         41.50695        72.09719        -0.45920
C         42.70899        74.25234        -0.22102
C         41.47578        73.55045        -0.29444
C         45.13772        33.46150         2.90182
C         43.92456        34.07006         2.54076
C         44.99814        36.26138         2.64195
C         43.83355        35.47276         2.39544
C         44.96551        37.67789         2.42731
C         43.62573        38.34595         2.22939
C         45.06930        40.12031         1.06701
C         43.70310        39.61319         1.43506
C         45.05290        41.52893         0.55014
C         43.90278        42.16746         0.24689
C         45.21217        44.22431        -0.38729
C         43.94761        43.46719        -0.45751
C         45.22524        45.60212        -0.69212
C         43.96296        46.32227        -0.82706
C         45.19497        48.45388        -0.94724
C         44.00436        47.77259        -0.81101
C         45.24304        49.89741        -0.87407
C         44.01351        50.63077        -0.69630
C         45.28008        52.75116        -0.75962
C         44.04838        52.07003        -0.64417
C         45.33618        54.20277        -0.72825
C         44.08540        54.95892        -0.47041
C         45.23434        57.09822        -0.92316
C         44.05233        56.37825        -0.85968
C         45.21481        58.49544        -1.15832
C         43.95819        59.18795        -1.28374
C         45.19385        61.37097        -1.10100
C         43.92530        60.65049        -1.34708
C         45.21159        62.83143        -1.38694
C         43.94915        63.58127        -1.20593
C         45.28157        65.61999        -0.58691
C         43.98471        64.94306        -0.99381
C         45.26376        67.11585        -0.74602
C         44.03164        67.79688        -0.61492
C         45.22989        69.91805        -0.74651
C         44.02362        69.21262        -0.59989
C         45.23016        71.40537        -0.81401
C         43.94045        72.15979        -0.73941
C         45.18384        74.22598        -0.15637
C         43.95495        73.59613        -0.36343
C         46.27930        34.21308         3.13280
C         47.35996        36.42999         3.31551
C         46.24376        35.64125         3.02377
C         47.29512        37.92538         3.31522
C         46.09457        38.45145         2.57972
C         47.42571        40.49274         1.86475
C         46.06465        39.91472         2.22371
C         47.49802        41.64280         1.13323
C         46.41144        42.05370         0.14631
C         47.63141        44.22270        -0.20979
C         46.41044        43.54309        -0.12281
C         47.66629        45.59951        -0.54176
C         46.45331        46.28449        -0.78653
C         47.72950        48.43902        -1.04754
C         46.45127        47.69083        -1.32706
C         47.71907        49.84956        -1.10387
C         46.46973        50.58144        -1.00834
C         47.74213        52.70038        -1.00000
C         46.50710        52.01863        -0.93051
C         47.81644        54.16450        -0.62309
C         46.51234        54.90002        -0.80858
C         47.75651        57.10555        -1.04924
C         46.52478        56.39544        -0.53801
C         47.76284        58.47446        -1.17443
C         46.48593        59.20879        -1.50457
C         47.77882        61.38552        -1.22608
C         46.49744        60.64980        -1.07786
C         47.77949        62.77424        -1.22491
C         46.52288        63.53916        -1.39058
C         47.73726        65.67299        -1.14536
C         46.54231        64.99117        -1.13025
C         47.75824        67.12687        -1.02494
C         46.48092        67.82524        -0.86854
C         47.69428        70.03646        -1.19738
C         46.45003        69.23795        -0.89033
C         47.68237        71.40094        -0.53045
C         46.47716        72.10176        -0.45461
C         47.61814        74.15365         0.22629
C         46.44085        73.51765        -0.13247
C         48.58732        38.57418         2.90357
C         49.92031        40.40212         1.95441
C         48.64584        39.81019         2.30364
C         50.01257        41.65081         1.36721
C         48.75803        42.47054         1.15567
C         50.14617        44.23269         0.05215
C         48.89068        43.40891        -0.05925
C         50.15830        45.61181        -0.32446
C         48.93863        46.29748        -0.60316
C         50.19007        48.39523        -0.88871
C         48.95048        47.70590        -0.85888
C         50.19568        49.79666        -1.34426
C         48.94313        50.57777        -1.24697
C         50.20223        52.74977        -1.42313
C         48.94584        51.98578        -1.22579
C         50.22778        54.22377        -1.24314
C         49.03572        54.89649        -1.13772
C         50.26035        57.11169        -1.28123
C         48.97582        56.35227        -1.49979
C         50.24415        58.48292        -1.25139
C         48.99884        59.21808        -1.25852
C         50.24012        61.35871        -1.06239
C         49.00579        60.63828        -1.23100
C         50.21460        62.79981        -0.94069
C         48.99907        63.51057        -1.12720
C         50.22116        65.62386        -1.08672
C         49.00213        64.93531        -1.16948
C         50.22897        67.07594        -1.49283
C         48.95604        67.82508        -1.10275
C         50.14984        69.96908        -0.77094
C         48.97744        69.26517        -0.98294
C         50.13598        71.37247        -0.40143
C         48.90040        72.03918        -0.21177
C         50.14557        74.15646         0.21624
C         48.88029        73.38152         0.47513
C         51.24752        42.27212         1.03197
C         52.67013        44.17745         0.23953
C         51.31437        43.55285         0.46097
C         52.62668        45.67467         0.03004
C         51.40035        46.33636        -0.30535
C         52.65616        48.46266        -0.54331
C         51.41547        47.73238        -0.60846
C         52.70800        49.85328        -0.80655
C         51.52544        50.52791        -1.36827
C         52.72629        52.75920        -1.01064
C         51.52392        52.02288        -1.45153
C         52.69514        54.20869        -1.03861
C         51.50937        54.90016        -1.29118
C         52.75828        57.09797        -1.04369
C         51.54982        56.38156        -1.60017
C         52.73838        58.48539        -0.95606
C         51.53925        59.24218        -1.47620
C         52.63857        61.32853        -0.55314
C         51.47082        60.67441        -1.00895
C         52.54475        62.76229        -0.06901
C         51.39605        63.52101        -0.67022
C         52.67073        65.64591        -0.55515
C         51.42488        64.92523        -0.79322
C         52.70162        67.06038        -0.60542
C         51.52205        67.81079        -1.11240
C         52.64326        69.95548        -0.25876
C         51.46263        69.28633        -0.83433
C         52.60385        71.36663        -0.10263
C         51.35304        72.07133        -0.18078
C         52.61224        74.29382        -0.20235
C         51.32509        73.51195        -0.01181
C         53.80415        46.38806         0.13306
C         55.05525        48.51332         0.00071
C         53.85741        47.79577        -0.12033
C         55.11600        49.91874        -0.24166
C         53.87787        50.60607        -0.57957
C         55.09837        52.75078        -0.17012
C         53.85781        52.04285        -0.65276
C         55.10532        54.23546        -0.42538
C         53.92451        54.93306        -0.73796
C         55.10951        57.05962        -0.28366
C         53.93202        56.36140        -0.69567
C         55.07243        58.47872        -0.17041
C         53.88021        59.20083        -0.48643
C         54.93858        61.31808         0.42338
C         53.81705        60.61510        -0.30225
C         55.02909        62.79286         0.10355
C         53.85925        63.49645        -0.14537
C         55.08237        65.63031        -0.01788
C         53.86336        64.92465        -0.25234
C         55.06745        67.05411         0.06621
C         53.85682        67.77051        -0.19550
C         55.00375        69.92723         0.32905
C         53.82879        69.22200        -0.04343
C         55.00500        71.32863         0.31827
C         53.81650        72.06564         0.13552
C         54.97911        74.18448         0.59549
C         53.85369        73.52651         0.21028
C         56.32748        50.60937        -0.25915
C         57.58718        52.79517        -0.26377
C         56.35876        52.04911        -0.69990
C         57.55623        54.16514        -0.04645
C         56.31286        54.91754        -0.16974
C         57.52925        57.02091         0.33274
C         56.33015        56.33611        -0.04371
C         57.44128        58.43806         0.52116
C         56.25451        59.18258         0.22042
C         57.44562        61.31383         0.60006
C         56.25896        60.59806         0.35690
C         57.46481        62.75967         0.58533
C         56.27039        63.48005         0.27793
C         57.49492        65.60389         0.54440
C         56.28736        64.90616         0.24708
C         57.45788        67.03081         0.62130
C         56.27351        67.73516         0.43132
C         57.50018        69.92894         0.66944
C         56.20059        69.18309         0.86650
C         57.52485        71.32638         0.55285
C         56.28649        72.11469         0.24193
C         57.53123        74.18229         0.80424
C         56.23062        73.43442         1.00516
C         58.76196        54.90064         0.14176
C         60.09583        56.91630         0.29355
C         58.79753        56.29268         0.32622
C         60.35769        58.17630         0.85490
C         58.51048        59.18821         1.05918
C         59.91882        61.21972         1.06603
C         58.65623        60.58527         0.88962
C         59.88428        62.69104         1.23461
C         58.66269        63.45485         0.87780
C         59.95292        65.58886         0.93694
C         58.69607        64.87266         0.83938
C         59.96890        67.01509         0.83805
C         58.68305        67.75657         1.12800
C         59.92411        69.90935         0.60974
C         58.70987        69.21979         0.75428
C         59.95826        71.32579         0.55083
C         58.73888        72.03891         0.58056
C         59.99260        74.18174         0.65017
C         58.72618        73.50469         0.65053
C         61.32474        59.15179         0.58481
C         62.38938        61.30527         0.90260
C         61.18506        60.54049         0.93935
C         62.44888        62.70291         1.00247
C         61.20135        63.45279         1.24939
C         62.41671        65.57641         0.83497
C         61.18615        64.89707         0.96585
C         62.42793        66.99620         0.65429
C         61.16799        67.68968         0.63925
C         62.45167        69.90091         0.28241
C         61.16106        69.14558         0.38201
C         62.42446        71.35117         0.56902
C         61.22140        72.03873         0.56871
C         62.45688        74.17930         0.72926
C         61.20905        73.49347         0.64695
C         63.64604        63.42430         0.87213
C         64.87443        65.56715         0.85691
C         63.66737        64.84946         0.86233
C         64.88963        66.98807         0.81442
C         63.65890        67.68793         0.62541
C         64.75320        69.83378         1.29874
C         63.77893        69.16496         0.32822
C         64.83363        71.31832         1.01610
C         63.68309        72.03553         0.78402
C         64.89638        74.17682         1.09098
C         63.67947        73.49912         0.82607
C         66.09561        67.72265         1.00539
C         67.22849        69.81871         1.63109
C         66.09554        69.11941         1.27135
C         67.10089        71.26051         2.04986
C         66.17486        71.99009         1.06512
C         67.28320        74.11448         1.70454
C         66.10077        73.48263         1.32321
C         68.40648        71.99782         2.19705
C         68.44762        73.35154         2.04677
O         61.73393        69.51954        -0.94596
O         31.34956        68.83954        -1.30327
O         31.99082        58.68588        -2.44191
O         44.59364        71.91007        -2.05644
O         45.81841        60.96329         0.17910
O         40.00559        70.60317        -1.75395
O         39.07614        60.15290         0.32653
O         43.63045        54.70186         0.95103
O         35.87337        61.07733        -2.86966
O         40.96484        45.88754        -2.43133
O         59.42689        58.54172         1.86808
O         51.84724        68.76866        -2.18196
O         50.90955        52.47481        -2.69301
O         46.80014        41.35832        -1.05067
O         34.60823        70.02893        -1.41977
O         50.99358        49.92484        -2.58511
O         45.84241        63.17044        -2.67785
O         37.65161        50.06316         1.30953
O         60.51167        63.11780         2.50116
O         43.37916        43.46707        -1.81796
O         66.78283        71.81994        -0.24937
H         66.13137        72.10283        -0.92453
O         43.24288        38.77435         3.59624
H         42.96504        37.97046         4.08475
O         39.34448        62.96899         0.70616
H         39.30134        61.98506         0.77843
O         46.41856        47.54601        -2.79304
H         46.47797        48.44427        -3.18200
O         40.35816        52.74503         1.55910
H         40.39105        51.79395         1.79924
O         53.57203        43.83928         1.30128
H         53.23010        44.23151         2.13054
O         36.93124        52.63036         1.84382
H         37.60242        52.00790         2.20159
O         58.53390        67.74553         2.60055
H         59.34890        68.13041         2.98832
O         55.99656        69.11759         2.31881
H         56.77631        68.63579         2.69117
O         41.23088        58.93949        -3.06734
H         41.33786        57.96897        -3.22389
O         48.88963        73.08918         1.94117
H         49.70023        72.56481         2.11837
O         42.83636        69.99274         1.28458
H         42.67132        69.08569         1.62335
O         64.20306        69.69823         2.63553
H         64.80718        70.21105         3.22854
O         42.72814        48.30955         1.11462
H         43.51687        48.77565         1.46648
O         42.33327        56.44591        -2.55886
H         43.08894        56.59294        -3.16749
O         31.15346        63.49885        -2.51805
H         30.49145        64.22937        -2.63078
O         47.05147        38.36220         4.73969
H         46.31505        37.81016         5.08242
O         31.93646        71.52752         2.92891
H         31.21871        71.98250         3.41973
O         28.68126        62.12702         2.08277
H         28.80226        62.93128         2.62940
O         29.80205        65.77469        -1.98072
H         30.30715        66.53293        -2.35017
O         51.69840        59.29517        -2.93388
H         51.79468        58.35555        -3.23882
O         42.52753        42.33440         2.16484
H         43.16615        41.84936         2.73427
O         48.01919        54.14718         0.84734
H         47.70475        55.02629         1.18456
O         41.96011        56.83156         1.09348
H         42.63156        56.16802         1.40208
O         35.23186        65.82141        -2.67970
H         35.21986        64.92329        -3.07628
O         39.33030        69.07336         1.50676
H         38.59295        68.58883         1.93483
O         23.64895        67.53674         0.01383
H         24.27645        68.02189        -0.56071
O         46.61110        56.50363         0.93746
H         45.74170        56.22195         1.29950
O         64.37100        69.29048        -0.99001
H         63.64389        69.13836        -1.63546
O         56.40583        72.49717        -1.16489
H         56.47211        71.67881        -1.69991
O         37.31828        48.90509        -2.20032
H         37.48590        48.06878        -2.70232
O         40.71375        65.26055         0.96909
H         40.37377        64.35918         1.19870
O         52.22028        62.67747         1.36255
H         52.93912        62.13841         1.78475
O         45.52501        39.28421        -0.02944
H         46.06646        39.87829        -0.63692
O         36.73015        58.63947        -3.02633
H         36.19060        59.26904        -3.56119
O         45.35928        65.37100         0.86926
H         46.11863        65.88394         1.21935
O         48.84221        56.32134        -3.00529
H         48.79272        57.25898        -3.29853
O         41.12827        65.52335        -2.65509
H         41.82535        65.22773        -3.27666
O         47.65528        70.30472        -2.64016
H         46.82089        70.78730        -2.82958
O         39.73523        63.10719        -2.93875
H         40.37289        62.70587        -3.56521
O         66.42633        71.28247         3.36080
H         67.07222        70.97404         4.03098
O         49.08751        42.62731        -1.25611
H         48.25200        42.06798        -1.39112
O         48.63473        43.35284         2.31744
H         48.41153        42.79467         3.09241
O         37.32017        43.96640        -2.24247
H         37.76278        44.66322        -2.78167
O         37.27934        52.57454        -1.78763
H         37.94798        52.88840        -2.43138
O         50.18049        67.02356        -2.94838
H         50.56674        67.87300        -3.26946
O         55.14834        52.59326         1.28144
H         54.38311        53.07060         1.66446
O         46.52582        59.27536        -2.97962
H         46.46285        58.35938        -3.32433
O         38.53236        46.49139        -2.75323
H         39.40588        46.51434        -3.22198
O         45.58586        40.65356         3.38479
H         46.01636        40.25041         4.17281
O         54.54850        61.25824         1.86056
H         55.27790        61.66543         2.37665
O         27.24938        61.55241        -1.24324
H         27.90234        62.00834        -1.81420
O         56.12585        73.13036         2.42583
H         56.14302        73.97593         2.91983
O         52.54612        75.55956         0.45570
H         52.44192        75.40148         1.41604
O         39.06563        56.74358         1.45243
H         40.00926        56.71315         1.73771
O         23.46040        70.56580         4.52481
H         23.48535        71.44938         4.95158
O         56.35115        52.07235        -2.16131
H         55.59438        51.52823        -2.46725
O         51.66214        56.46951        -3.07300
H         50.82547        56.08393        -3.43194
O         35.10502        50.01046         2.07684
H         35.97410        49.82173         2.49798
O         35.62963        70.58630         2.06853
H         35.55807        71.31903         2.71700
H         23.14395        74.77060         3.15501
H         25.59667        74.86653         2.76873
H         28.03097        74.95355         2.31020
H         30.42967        75.05287         1.70287
H         32.87562        75.11177         1.25473
H         35.32940        75.14610         1.02936
H         37.79453        75.22618         0.55073
H         40.23976        75.27070         0.12412
H         42.69576        75.32583         0.02280
H         45.19669        75.29935         0.08842
H         47.60717        75.22580         0.47410
H         50.13891        75.25031         0.34015
H         52.70638        74.51431        -1.30312
H         54.95739        75.28360         0.67563
H         57.54182        75.27777         0.92602
H         60.00039        75.28132         0.70390
H         62.45198        75.27896         0.78062
H         64.87772        75.27090         1.21616
H         67.32469        75.21188         1.76935
H         22.27878        68.87074         2.50635
H         21.01871        71.00701         3.00657
H         21.01510        73.48184         3.12072
H         24.68581        64.79908         1.37252
H         23.51654        66.84437         1.94951
H         27.16979        60.61387         0.59234
H         25.98712        62.73511         1.27959
H         29.44996        56.43334        -0.37003
H         28.21084        58.57903        -0.10487
H         32.00064        52.18576        -0.40363
H         30.69707        54.30113        -0.48985
H         34.61720        47.87986         0.68679
H         33.23766        50.13752        -0.12320
H         36.79128        43.80363        -0.24205
H         35.74350        45.85835         0.16452
H         39.13831        39.69615         0.82405
H         37.95788        41.72167         0.08885
H         41.74117        35.43585         1.76312
H         40.38460        37.53604         1.21056
H         45.18001        32.36734         2.99816
H         43.03702        33.44978         2.35118
H         47.22094        33.72157         3.41571
H         48.29140        35.94490         3.64602
H         49.52297        38.04116         3.13490
H         50.83678        39.82524         2.15883
H         52.19089        41.76127         1.28212
H         53.10480        43.71704        -0.69289
H         54.72605        45.86178         0.42136
H         55.97810        47.98009         0.27255
H         57.26867        50.06806        -0.07981
H         58.55312        52.26618        -0.25132
H         59.71376        54.34851         0.12284
H         60.90595        56.36916        -0.21134
H         62.23496        58.86211         0.03926
H         63.33024        60.76144         0.72880
H         64.59506        62.87711         0.76940
H         65.82680        65.02155         0.93267
H         67.04502        67.16945         1.07938
H         68.21104        69.32072         1.64926
H         69.29938        71.44414         2.52606
H         69.38749        73.89255         2.23329
