         280
 CSIRO Nanostructure Databank - Neutral Graphene Oxide Data Set
C         30.33802        31.49144        -0.32382
C         30.25905        32.70844        -0.11006
C         30.25365        36.07048        -0.03223
C         30.30714        37.29050        -0.21527
C         30.67278        40.30657        -1.19214
C         30.80268        41.49324        -1.62180
C         32.78738        28.77088         0.34379
C         31.67107        29.27285         0.00960
C         32.71944        31.41092        -0.06961
C         31.50078        30.64869        -0.18526
C         32.67543        32.91145        -0.37600
C         31.37544        33.63318         0.11738
C         32.65184        35.86676        -0.15109
C         31.35403        35.11828         0.13265
C         32.69397        37.36129        -0.10366
C         31.43564        38.21033         0.18963
C         32.78671        40.28710        -0.19727
C         31.59180        39.55389        -0.46163
C         32.92267        41.65379        -0.55778
C         31.90169        42.30956        -1.33608
C         33.23485        44.30355        -1.30478
C         32.24465        43.66733        -1.66842
C         35.50367        27.30751         0.88130
C         35.27245        28.78435         1.10488
C         34.02729        29.38431         0.51611
C         35.21060        31.58154         0.50880
C         33.94108        30.78080         0.25648
C         35.14769        33.00329         0.02375
C         33.95999        33.65986        -0.03998
C         35.18318        35.93394        -0.18694
C         33.93735        35.15743         0.23188
C         35.17050        37.38865         0.15788
C         33.98224        38.05249         0.18059
C         35.16958        40.22981         0.83546
C         33.90846        39.52525         0.44441
C         35.23530        41.73106         0.65573
C         34.07847        42.45019         0.00507
C         35.74394        43.86027        -1.21682
C         34.40707        43.93778        -0.45728
C         36.19128        45.12473        -1.86684
C         37.92590        27.32845         1.25433
C         36.58646        26.72818         0.93212
C         37.89132        28.75055         0.64174
C         36.54926        29.40037         0.48460
C         37.74372        31.59266        -0.08252
C         36.47133        30.83773         0.08493
C         37.73029        32.94217        -0.19830
C         36.41990        33.65252        -0.48779
C         37.69634        35.81589         0.31864
C         36.46597        35.17716        -0.32030
C         37.79358        37.31986        -0.05222
C         36.46560        38.19623         0.07392
C         37.74164        40.11418         1.22117
C         36.44054        39.41536         1.02966
C         37.83207        41.49412         0.59742
C         36.60327        42.42509         0.80460
C         38.02741        44.26545        -0.05597
C         36.84741        43.57568        -0.16528
C         38.15546        45.66948        -0.59418
C         37.12860        45.88280        -1.62360
C         40.44166        24.43937         1.02933
C         39.39768        25.21945         1.03453
C         40.45561        27.31398         0.72959
C         39.12024        26.52592         0.83142
C         40.28237        28.60062        -0.11971
C         39.01525        29.38412         0.20853
C         40.26595        31.55717        -0.34448
C         38.96659        30.76848        -0.45787
C         40.25759        32.93242        -0.35584
C         38.97374        33.70368        -0.60917
C         40.21185        35.78257        -0.00693
C         39.00913        35.11910        -0.05136
C         40.27473        37.18462         0.41498
C         38.98578        37.87450         0.72322
C         40.37660        39.96464         1.39568
C         39.01185        39.27719         1.22746
C         40.31313        41.48846         1.36969
C         39.06362        42.27047         1.05545
C         40.36460        44.40758         0.84341
C         39.18009        43.71539         0.65500
C         40.57065        45.78237         0.36082
C         39.39730        46.43394        -0.34418
C         40.87541        48.31777        -0.78604
C         39.88094        47.63027        -1.04281
C         43.00838        24.48978         0.61785
C         41.70142        24.95103         0.79604
C         42.92373        27.22795         0.27218
C         41.62306        26.44859         0.16842
C         42.85821        28.71464         0.03079
C         41.56070        29.41939        -0.08827
C         42.74828        31.53908        -0.41794
C         41.54351        30.82559        -0.28993
C         42.74418        32.98594        -0.85101
C         41.48753        33.71778        -0.43333
C         42.67950        35.91891        -0.74623
C         41.45490        35.09364        -0.38497
C         42.61792        37.38980        -0.29868
C         41.45051        37.86881         0.51071
C         42.77209        40.13198         0.60245
C         41.45077        39.38956         0.44560
C         42.71975        41.59235         0.76359
C         41.58794        42.21870         1.18900
C         42.83992        44.42195         1.33601
C         41.52664        43.68577         1.56001
C         42.70216        45.91264         1.59627
C         41.76179        46.45200         0.52145
C         42.97224        48.55855         0.75869
C         42.15869        47.78059        -0.25246
C         44.06051        25.14303         0.31731
C         45.40940        27.28590         0.01401
C         44.21861        26.50850         0.06223
C         45.39851        28.70463        -0.22057
C         44.07704        29.38546        -0.59785
C         45.27862        31.60797        -0.67095
C         44.07270        30.86157        -0.12807
C         45.23933        33.07796        -0.64706
C         44.03949        33.72917        -0.54961
C         45.15563        35.89715        -0.44345
C         43.99180        35.19333        -0.51169
C         45.13625        37.39984        -0.54027
C         43.93355        37.96170         0.25150
C         45.15252        40.26449        -0.15904
C         43.93137        39.48467         0.30099
C         45.21743        41.67776         0.36811
C         43.90230        42.41923         0.29599
C         45.20841        44.63498         0.52084
C         43.96411        43.82392         0.88010
C         45.30457        45.94608         1.37649
C         44.04740        46.63549         1.73657
C         43.81885        48.06605         1.51364
C         47.72066        27.54241         0.63820
C         46.70523        26.85087         0.36046
C         47.75876        28.94514         0.51424
C         46.56684        29.48504        -0.04961
C         47.94058        31.64493        -0.60475
C         46.59517        30.90312        -0.53310
C         47.84892        33.16079        -0.71632
C         46.50578        33.83373        -1.03752
C         47.67970        36.03047        -0.66222
C         46.47845        35.18440        -0.31133
C         47.70549        37.34184        -0.33818
C         46.43018        38.03944        -0.05509
C         47.73397        40.25454        -0.12932
C         46.45455        39.52141         0.08487
C         47.72870        41.65831        -0.06175
C         46.42701        42.44373        -0.10801
C         47.74519        44.47557         0.46366
C         46.52386        43.85205         0.44270
C         47.65372        45.88546         0.80617
C         46.62982        46.51533         1.10273
C         50.06053        29.42560         1.60726
C         48.77658        29.84578         1.06224
C         50.17635        32.04732         0.58800
C         48.88840        31.28735         0.52602
C         50.28038        33.28058        -0.14159
C         49.02501        33.88510        -0.66202
C         50.11501        36.20935        -1.12038
C         48.89752        35.33478        -1.20858
C         50.23303        37.40236        -0.48467
C         48.98092        38.07666         0.03152
C         50.08150        40.25137        -0.82122
C         48.95255        39.55516        -0.33005
C         49.98702        41.66649        -0.90071
C         48.92960        42.36999        -0.27781
C         50.31149        44.40981         0.07584
C         49.03827        43.70647         0.48032
C         50.98849        30.19979         1.91210
C         52.43718        32.27368         1.37641
C         51.26903        31.47899         1.34742
C         52.50121        33.32504         0.69828
C         51.58592        33.95901        -0.16969
C         52.84924        36.12919        -0.48862
C         51.98664        35.08644        -0.91147
C         52.66769        37.36204        -0.48541
C         51.49169        38.24856        -0.20298
C         52.53484        40.45928        -0.81081
C         51.41925        39.50042        -1.10725
C         52.71567        41.63460        -0.43027
C         51.95723        42.79791        -0.71022
C         51.46091        43.88214         0.01504
O         51.13336        35.58680        -1.90790
O         34.18323        42.37787         1.45198
O         45.91519        31.00691        -1.84724
O         38.23541        46.62367         0.49867
O         41.22930        39.54024        -0.97436
O         36.28753        29.79182        -0.91830
O         39.43569        41.98901         2.42981
O         50.94918        42.38577        -1.66039
O         34.17134        39.86092         1.84645
O         46.39301        38.66375         1.29101
O         35.82889        35.77744        -1.49072
O         43.08268        28.16653         1.38798
O         31.42644        34.34307         1.37454
O         44.86184        46.00918         2.75396
O         32.67256        36.62549        -1.38495
O         42.70421        36.22199        -2.20851
O         36.93755        39.72344         2.38098
O         36.39087        38.97212        -1.12871
O         48.22692        30.99442         1.78014
O         38.82884        38.13585         2.14713
O         44.00475        37.44802         1.60023
H         44.69142        37.96630         2.07851
O         44.24049        30.88532         1.31379
H         43.62112        30.24180         1.72414
O         49.22999        43.29840         1.85267
H         49.19787        44.09902         2.41873
O         44.95131        45.10074        -0.83334
H         45.78848        45.45243        -1.20584
O         42.70714        32.95820        -2.31784
H         42.54954        33.88182        -2.62333
O         43.62472        42.63378        -1.14609
H         44.22630        43.36627        -1.44063
O         37.94701        41.21497        -0.81970
H         37.38137        40.40495        -1.04374
O         40.89626        39.62807         2.69541
H         40.28944        40.01177         3.36505
O         48.69317        35.19948        -2.65383
H         49.57499        35.01170        -3.04971
O         35.29307        29.01349         2.50313
H         34.42871        28.76083         2.88674
O         37.99529        27.48990         2.67358
H         37.86215        26.61758         3.09838
O         37.48166        35.65398         1.73778
H         37.98586        36.34459         2.22670
O         32.59788        32.99331        -1.82547
H         32.70253        33.92750        -2.10656
O         44.96952        37.72796        -1.94432
H         44.38316        37.02651        -2.34412
O         38.78529        30.49036        -1.88833
H         37.84523        30.19887        -1.99785
O         34.56522        44.76864         0.66112
H         34.35158        44.24860         1.47232
O         35.35807        31.72421         1.95420
H         34.77419        32.44855         2.26552
O         46.65840        34.85261         1.09827
H         46.42970        35.63936         1.63734
O         40.72575        27.75204         2.05501
H         40.91979        26.98211         2.62818
O         42.03299        46.16475         2.85950
H         42.71549        46.16765         3.56528
O         51.52817        38.68473         1.14279
H         50.74955        38.33383         1.64027
O         42.25633        38.01893        -1.62647
H         43.04465        38.51316        -1.97900
O         38.93302        33.84835        -2.06090
H         37.99842        33.70925        -2.35765
O         51.47310        39.07068        -2.45839
H         51.51248        39.85650        -3.04201
O         46.28220        42.67648        -1.56560
H         46.02970        41.79876        -1.95818
O         33.99602        35.22871         1.69009
H         33.11773        34.94285         2.04134
O         31.39087        38.38783         1.59842
H         30.81243        39.14643         1.81882
O         46.35350        33.98198        -2.45814
H         47.16139        34.41807        -2.82720
O         43.86737        29.29618        -2.00959
H         44.56339        29.83683        -2.45427
O         36.27740        33.38788        -1.93091
H         35.81570        34.18092        -2.30933
O         43.01381        47.41365        -1.30625
H         43.15152        48.18416        -1.89417
O         38.18257        37.33849        -1.42734
H         37.55327        37.97601        -1.87208
O         41.46192        26.18804        -1.21734
H         40.53815        25.91747        -1.40067
O         35.67513        42.75463        -2.10124
H         36.55917        42.59176        -2.49291
O         41.25938        43.69180         2.97801
H         41.11675        44.63188         3.24458
O         36.66891        42.96938         2.13019
H         36.45050        42.25795         2.76964
O         48.58492        31.18483        -1.81988
H         47.91255        31.24392        -2.53611
O         44.99324        40.36458        -1.62539
H         44.23330        40.99484        -1.75906
O         49.00271        37.99762         1.49323
H         48.14128        38.37577         1.81184
O         40.08452        28.19871        -1.49569
H         39.77094        29.00613        -1.98875
