         430
 CSIRO Nanostructure Databank - Neutral Graphene Oxide Data Set
C         27.83679        27.43953        -1.04127
C         27.84921        28.86922        -0.79716
C         26.66194        29.62376        -0.89421
C         27.92066        31.70216        -0.66619
C         26.69514        31.00553        -0.79448
C         27.95575        33.16303        -0.55471
C         26.79775        33.92827        -0.70198
C         27.97703        35.99365        -0.14746
C         26.81019        35.31368        -0.51127
C         27.98176        37.43800         0.05513
C         26.77951        38.18886        -0.06838
C         27.95874        40.26932         0.37893
C         26.76537        39.55463         0.09053
C         27.96025        41.69618         0.54073
C         26.72358        42.43778         0.70566
C         27.90273        44.59007         0.80508
C         26.69069        43.77466         0.94263
C         27.98649        45.95899         1.32504
C         30.24656        27.27097        -0.58292
C         28.96783        26.69316        -1.03467
C         30.29687        28.75305        -0.35890
C         29.07494        29.55056        -0.59571
C         30.45538        31.66382        -0.62645
C         29.11795        30.95787        -0.58476
C         30.39880        33.10113        -0.14154
C         29.18365        33.83386        -0.23256
C         30.41440        35.91842         0.30420
C         29.19231        35.24961        -0.00400
C         30.43353        37.37313         0.47641
C         29.17955        38.11240         0.35449
C         30.38023        40.23638         0.83041
C         29.17768        39.53775         0.50765
C         30.39343        41.62453         0.90256
C         29.19031        42.35673         0.70998
C         30.47584        44.53365         1.02952
C         29.23021        43.82463         0.69749
C         30.44839        45.93770         1.16998
C         29.18357        46.60216         1.39670
C         32.82444        24.51270        -0.92924
C         31.59321        25.20303        -0.79793
C         32.76583        27.37177        -1.19457
C         31.53491        26.57102        -0.82254
C         32.78088        28.78705        -0.65194
C         31.61379        29.43827        -0.37122
C         32.88128        31.57212        -0.07260
C         31.56560        30.86715         0.09274
C         32.84893        32.99763         0.29086
C         31.58101        33.75421         0.22019
C         32.88161        35.87451         0.47555
C         31.60796        35.16870         0.41860
C         32.89445        37.29285         0.97490
C         31.60346        38.03707         0.76831
C         32.90214        40.21152         0.97002
C         31.60648        39.46759         1.24913
C         32.91173        41.59806         1.03712
C         31.64003        42.32786         1.40419
C         32.91635        44.49000         1.02409
C         31.68798        43.80772         1.10418
C         32.91604        45.93283         0.99199
C         31.69712        46.65107         1.18366
C         32.94121        48.74181         1.13161
C         31.75007        48.06509         1.28354
C         35.34394        23.07456        -0.90338
C         35.30598        24.47904        -0.89148
C         34.04550        25.20017        -0.94672
C         35.27153        27.34136        -0.87355
C         34.06038        26.62961        -0.94194
C         35.27021        28.79249        -0.76991
C         34.06117        29.47904        -0.59853
C         35.32529        31.61894        -0.48299
C         34.06788        30.90592        -0.35086
C         35.27949        33.09408        -0.50476
C         34.12454        33.78546         0.13068
C         35.27253        36.04046        -0.28283
C         34.05563        35.25516         0.14186
C         35.33014        37.42802         0.31410
C         34.13251        38.08347         0.60835
C         35.36796        40.20648         0.77759
C         34.12789        39.49410         0.79034
C         35.36287        41.61424         0.93329
C         34.14815        42.32071         0.99555
C         35.39279        44.45592         0.79748
C         34.15967        43.76772         0.97691
C         35.36986        45.90138         0.36588
C         34.12959        46.64287         0.80582
C         35.38791        48.76774         0.57871
C         34.14226        48.04491         0.84004
C         35.36683        50.15935         0.29184
C         37.76365        23.07714        -0.69620
C         36.55133        22.38989        -0.81254
C         37.76601        24.49300        -0.74509
C         36.53177        25.20458        -0.83417
C         37.75235        27.36221        -0.87548
C         36.52194        26.63876        -0.85041
C         37.73343        28.80030        -0.89064
C         36.53159        29.50557        -0.78583
C         37.79319        31.70450        -0.74871
C         36.52918        30.95966        -0.71249
C         37.81841        33.11938        -0.64162
C         36.56471        33.88168        -0.60664
C         37.79964        36.08026        -0.45981
C         36.56200        35.27468        -0.19485
C         37.84453        37.28763         0.48812
C         36.57431        38.11148         0.41630
C         37.87683        40.21295         0.70053
C         36.60595        39.48697         0.67127
C         37.89028        41.61129         0.84383
C         36.64031        42.33683         1.26572
C         37.86972        44.49976         0.82385
C         36.61839        43.78867         0.86228
C         37.84108        45.95304         0.80887
C         36.65100        46.63938         0.68827
C         37.85469        48.81510         0.44040
C         36.61570        48.08389         0.60230
C         37.79190        50.20347         0.02232
C         36.52251        50.83844        -0.02817
C         40.07485        20.40457         0.61808
C         38.97315        20.97443         0.08874
C         40.22420        23.12712        -0.17236
C         39.05736        22.29103        -0.64639
C         40.20711        24.51841        -0.43954
C         39.01157        25.23186        -0.71905
C         40.22801        27.42110        -0.72025
C         38.99609        26.65471        -0.84583
C         40.23752        28.78964        -0.67669
C         39.02502        29.53968        -1.16312
C         40.26086        31.68975        -0.71796
C         39.02406        31.00267        -0.79924
C         40.28366        33.13171        -0.63700
C         39.04391        33.84245        -0.55821
C         40.28117        35.94857        -0.29726
C         39.06990        35.26010        -0.40062
C         40.27151        37.37683         0.00418
C         39.11786        38.07783         0.30572
C         40.31930        40.25105         0.48829
C         39.10967        39.51003         0.52022
C         40.32641        41.65963         0.55995
C         39.09928        42.35564         0.76000
C         40.39012        44.51382         1.12276
C         39.08205        43.79461         0.86702
C         40.36964        45.97298         0.71154
C         39.11382        46.72193         1.09151
C         40.33361        48.84148         0.44910
C         39.06485        48.13546         0.56682
C         40.27450        50.32201        -0.07373
C         38.96702        50.88719        -0.39870
C         40.09881        52.69496        -1.60029
C         38.93870        52.08758        -1.15545
C         42.50974        20.47748         1.10471
C         41.34305        21.11306         0.68454
C         42.55665        23.32019         0.80520
C         41.36303        22.50751         0.35437
C         42.70927        24.59371         0.02709
C         41.50608        25.20012        -0.51316
C         42.77954        27.41523        -0.43098
C         41.52156        26.70409        -0.70766
C         42.76518        28.81690        -0.38486
C         41.45478        29.53849        -0.18570
C         42.74124        31.64884        -0.65600
C         41.50014        30.98225        -0.61045
C         42.77155        33.11336        -1.04203
C         41.50536        33.83962        -0.65158
C         42.78477        35.93972        -0.47782
C         41.52855        35.24168        -0.47132
C         42.74950        37.43815        -0.60617
C         41.57628        38.04961         0.12613
C         42.82692        40.27877         0.07919
C         41.59660        39.52613         0.38884
C         42.82065        41.66759         0.17346
C         41.58468        42.40094         0.45684
C         42.90556        44.52163         0.71117
C         41.60373        43.76536         0.62422
C         42.81275        45.96515         0.28566
C         41.56203        46.65706         0.38635
C         42.74138        48.78207        -0.17987
C         41.56881        48.09136         0.19977
C         42.70075        50.16519        -0.61660
C         41.47322        50.85571        -0.71881
C         42.57060        52.70734        -1.88286
C         41.37646        52.09454        -1.40642
C         43.75453        21.16227         1.10279
C         45.10274        23.22732         0.74286
C         43.83562        22.52146         0.87247
C         45.14517        24.55153         0.22962
C         43.94108        25.25201        -0.08211
C         45.22625        27.39578        -0.26833
C         43.98694        26.68104        -0.35114
C         45.22764        28.81317        -0.36279
C         43.98537        29.53304        -0.41237
C         45.24345        31.66482        -0.93451
C         43.96397        30.95748        -0.54820
C         45.23729        33.13629        -0.59214
C         44.04088        33.82452        -0.62386
C         45.26600        35.97477        -0.40089
C         44.01201        35.25937        -0.49362
C         45.26111        37.41551        -0.32502
C         44.04880        38.13172        -0.28807
C         45.26958        40.26484        -0.24091
C         44.03912        39.54328        -0.14272
C         45.24857        41.67585        -0.26574
C         44.05050        42.39332        -0.02316
C         45.27850        44.53449        -0.10463
C         44.06896        43.80777         0.08847
C         45.26131        45.96865        -0.09565
C         44.00320        46.66398        -0.01516
C         45.18775        48.76192        -0.61332
C         43.97877        48.07075        -0.27337
C         45.14687        50.15354        -0.95708
C         43.89367        50.81504        -1.07294
C         43.78926        52.10754        -1.67669
C         47.53403        23.29707         1.07506
C         46.29991        22.62170         1.16907
C         47.64712        24.51754         0.44452
C         46.45107        25.16250        -0.21347
C         47.66582        27.39064        -0.05823
C         46.46684        26.68500        -0.12891
C         47.69171        28.82366        -0.12923
C         46.47263        29.53665        -0.33430
C         47.70968        31.65461        -0.42918
C         46.49325        30.94563        -0.48951
C         47.70892        33.11110        -0.43297
C         46.49522        33.82875        -0.44742
C         47.74138        35.98094        -0.27381
C         46.48849        35.26792        -0.37106
C         47.74315        37.40938        -0.21470
C         46.50767        38.12901        -0.25532
C         47.75165        40.27297        -0.21869
C         46.50927        39.54442        -0.27823
C         47.75662        41.68082        -0.29370
C         46.49449        42.39891        -0.68898
C         47.72412        44.55916        -0.34373
C         46.49678        43.85784        -0.34624
C         47.72857        45.98308        -0.33369
C         46.46278        46.68460        -0.33495
C         47.69552        48.72356        -1.11715
C         46.42311        48.06942        -0.62130
C         47.58869        50.22132        -1.16244
C         46.39272        50.85403        -1.16080
C         50.17661        24.56996         0.79202
C         48.95365        25.16521         0.24024
C         50.19309        27.41768         0.30329
C         48.96364        26.66742        -0.02026
C         50.18320        28.83841         0.17281
C         48.93142        29.54127        -0.11564
C         50.23841        31.63372        -0.59736
C         48.93365        30.93144        -0.30219
C         50.17268        33.12735        -0.35856
C         48.96646        33.82224        -0.33425
C         50.20777        35.99353        -0.14399
C         48.96827        35.27124        -0.25366
C         50.20603        37.41771        -0.03768
C         48.97401        38.12924        -0.09625
C         50.20608        40.27335         0.09227
C         48.97714        39.55717        -0.06297
C         50.19779        41.71638         0.02245
C         48.97178        42.40729        -0.19413
C         50.18205        44.56460        -0.23409
C         48.96807        43.84113        -0.29307
C         50.17675        46.00303        -0.31602
C         48.95577        46.69441        -0.35224
C         50.21076        48.81271        -0.79521
C         48.91447        48.21153        -0.31996
C         51.30779        25.29943         0.92863
C         52.57164        27.45203         0.93412
C         51.35698        26.72452         0.68378
C         52.56985        28.87160         0.78523
C         51.37341        29.55906         0.38103
C         52.60283        31.67592         0.25111
C         51.43349        30.98376         0.08917
C         52.72738        33.09008        -0.15208
C         51.44071        33.86420        -0.39959
C         52.67744        36.00174         0.05878
C         51.45343        35.31349        -0.16654
C         52.66518        37.40413         0.23473
C         51.44002        38.12735         0.13723
C         52.67231        40.28255         0.48016
C         51.41171        39.55090         0.24860
C         52.67768        41.78269         0.40036
C         51.40355        42.47407         0.10054
C         52.67799        44.63777         0.21543
C         51.40770        43.86098        -0.05454
C         52.65218        46.04222        -0.34724
C         51.43796        46.70983        -0.46525
C         51.36411        48.11806        -0.82761
C         54.93843        27.51449         1.52611
C         53.77615        26.80158         1.31509
C         54.95039        28.92046         1.36823
C         53.77279        29.58739         1.01439
C         55.11736        31.61422         0.38443
C         53.79591        31.09306         0.97237
C         55.14812        33.13094         0.43253
C         53.94833        33.84425         0.21546
C         55.16484        35.95815         0.33737
C         53.92916        35.25647         0.20462
C         55.18172        37.39498         0.28911
C         53.92859        38.12132         0.67497
C         55.12986        40.25992         0.02742
C         53.94894        39.57589         0.29952
C         55.13042        41.71719        -0.16567
C         53.94069        42.46371         0.02800
C         55.10686        44.53517        -0.51183
C         53.92208        43.85591        -0.15158
C         55.08153        45.96825        -0.69062
C         53.91311        46.67273        -0.62845
C         56.19001        29.67712         1.51781
C         56.29019        30.94293         1.07394
C         56.35206        33.84222         0.55734
C         56.36312        35.22786         0.49027
C         56.33812        38.11881        -0.01395
C         56.33845        39.50763        -0.11107
C         56.29955        42.41576        -0.53964
C         56.28970        43.79258        -0.71065
O         41.67925        25.81433        -1.85232
O         30.16724        27.83076         0.79313
O         52.67691        41.12783         1.71971
O         28.57833        44.40575        -0.48284
O         33.73348        33.26356         1.44677
O         49.12562        25.71006        -1.12972
O         35.63390        33.64027        -1.82253
O         41.84079        38.53241         1.47466
O         40.47457        49.99333         1.33295
O         52.30995        33.39828        -1.52863
O         46.57018        24.84405        -1.64917
H         47.47160        25.14989        -1.91946
O         37.88890        36.73696         1.83790
H         37.99111        37.48178         2.46710
O         37.73152        36.58707        -1.82829
H         36.77358        36.71766        -2.05162
O         45.26107        31.60845        -2.40458
H         44.47429        32.12395        -2.71536
O         40.53317        44.52704         2.60522
H         41.49869        44.69771         2.77823
O         42.48112        37.71405        -2.02599
H         43.11241        37.18710        -2.56029
O         42.26620        23.74833         2.20118
H         42.15298        22.92873         2.72890
O         42.81866        33.12537        -2.52432
H         41.98130        32.72491        -2.84528
O         53.89923        38.11266         2.16449
H         53.35704        38.88042         2.45119
O         39.16531        29.53962        -2.64004
H         39.13360        28.60452        -2.93734
O         43.21424        44.57629         2.18915
H         43.53297        43.68296         2.44493
O         53.74430        31.57899         2.34714
H         52.99669        31.13494         2.79876
O         55.13743        31.22261        -1.01255
H         55.94247        31.59627        -1.42645
O         39.17607        46.87167         2.56067
H         39.53724        46.01572         2.91250
O         31.52832        39.39890         2.72677
H         32.17195        38.69200         2.99666
O         50.44764        31.45925        -2.03803
H         51.22782        32.02088        -2.27208
O         36.69364        42.34112         2.74843
H         35.89357        42.81195         3.06702
O         52.73039        44.80775         1.67764
H         52.76762        43.91053         2.07495
O         31.56028        42.24096         2.87052
H         31.53221        41.27407         3.09081
O         31.20538        30.88403         1.50055
H         31.82120        30.29552         1.98476
O         35.03958        36.28599        -1.74103
H         35.08653        35.38571        -2.16037
O         32.68980        27.53783        -2.66392
H         32.83614        26.65382        -3.06343
O         30.85790        31.71832        -2.02566
H         30.15782        32.18597        -2.52743
O         47.90930        48.26789        -2.48926
H         47.13923        48.55309        -3.02420
O         46.47684        42.36678        -2.18116
H         46.43615        41.42178        -2.44327
O         48.70765        48.63224         1.05578
H         49.46157        48.30361         1.58875
O         35.29904        45.85750        -1.10805
H         35.23578        46.78503        -1.42142
O         33.02184        37.14415         2.45851
H         32.53141        36.33289         2.71529
O         39.35533        21.94923        -2.04598
H         40.23596        21.51761        -2.06001
O         41.26916        29.58023         1.28807
H         42.00692        30.11113         1.65769
H         26.87921        26.98223        -1.33259
H         25.70287        29.10632        -1.03986
H         25.74740        31.55785        -0.83877
H         25.84539        33.45366        -0.97164
H         25.86622        35.85575        -0.64879
H         25.83385        37.68224        -0.29893
H         25.81614        40.09297        -0.03001
H         25.78318        41.87269         0.76863
H         25.74785        44.26856         1.22080
H         27.06185        46.46482         1.64021
H         28.93886        25.64006        -1.35019
H         29.19522        47.64888         1.73143
H         32.79904        23.41648        -0.91437
H         30.68057        24.61496        -0.62239
H         32.94653        49.83604         1.22093
H         30.83290        48.64046         1.46567
H         34.41940        22.48933        -0.98629
H         34.41099        50.69868         0.26396
H         36.53693        21.29240        -0.84113
H         36.45805        51.90286        -0.29071
H         40.02599        19.39681         1.05851
H         38.02917        20.41123         0.07673
H         40.03984        53.64182        -2.15567
H         37.97316        52.55503        -1.39341
H         42.48706        19.40562         1.34675
H         42.50740        53.67475        -2.40126
H         44.66701        20.56669         1.25048
H         44.69594        52.60768        -2.04270
H         48.42181        22.80553         1.49738
H         46.28372        21.63038         1.64052
H         48.50480        50.81169        -1.30590
H         46.37186        51.94827        -1.26486
H         50.17668        23.51165         1.08641
H         50.22874        49.88298        -1.04699
H         52.20343        24.79553         1.31354
H         52.28443        48.63825        -1.12766
H         55.86522        26.99265         1.80395
H         53.80490        25.71107         1.43319
H         56.02321        46.48163        -0.93304
H         53.94107        47.74965        -0.84432
H         57.06088        29.16441         1.95402
H         57.26009        31.45734         1.13332
H         57.30463        33.31371         0.69540
H         57.31782        35.75880         0.60242
H         57.27490        37.58353        -0.22644
H         57.28175        40.01436        -0.34903
H         57.24148        41.87553        -0.70026
H         57.21316        44.31613        -0.99681
