         490
 CSIRO Nanostructure Databank - Neutral Graphene Oxide Data Set
C         38.17167        49.58895        -2.83700
C         37.21645        50.01730        -3.76302
C         38.61413        51.90604        -4.32032
C         37.44257        51.17389        -4.51003
C         40.35825        48.44353        -1.19597
C         40.40604        49.89337        -1.61924
C         39.36155        50.30184        -2.65011
C         40.80802        52.27896        -3.16359
C         39.58168        51.49163        -3.38747
C         40.91162        53.62243        -3.58753
C         42.78044        48.40770        -0.79890
C         41.48223        47.77641        -0.83023
C         42.90602        49.73022        -1.26983
C         41.79921        50.23233        -2.16436
C         43.09548        52.42043        -2.26525
C         41.90329        51.69454        -2.50541
C         43.18537        53.76964        -2.70952
C         42.07379        54.34214        -3.37259
C         45.20071        45.60656        -0.16156
C         44.00011        46.28099        -0.35072
C         45.17779        48.40883        -0.17512
C         43.97785        47.69204        -0.39117
C         45.10998        49.91434        -0.10831
C         44.07437        50.48137        -1.05559
C         45.38083        52.56677        -1.27947
C         44.19753        51.81680        -1.53650
C         45.46681        53.93131        -1.73915
C         44.38717        54.53158        -2.43978
C         45.56700        56.67651        -2.46769
C         44.48800        55.89678        -2.82380
C         47.65452        44.41733         1.13891
C         47.66885        45.47625         0.06330
C         46.40168        46.30067         0.02373
C         47.61340        48.46633         0.29771
C         46.39893        47.72323         0.05679
C         47.64075        49.87001         0.20036
C         46.44686        50.60430        -0.20965
C         47.82296        52.67404        -0.55505
C         46.50248        51.92580        -0.61659
C         47.60086        54.19085        -0.53821
C         46.60161        54.74656        -1.38895
C         47.76929        56.95913        -1.31946
C         46.64107        56.14125        -1.70845
C         47.91312        58.33321        -1.67516
C         50.09813        44.27754         1.08710
C         48.79304        43.76418         1.46606
C         50.15993        45.60485         0.62417
C         48.95343        46.34070         0.05917
C         50.13828        48.46180         0.59744
C         48.83270        47.70018         0.76412
C         50.10005        49.88437         0.54492
C         48.86385        50.57769         0.39324
C         50.15659        52.72129         0.42788
C         48.78096        52.08696         0.52621
C         50.27152        54.11280         0.60033
C         48.47891        55.10241         0.03805
C         50.03973        57.05173        -0.24362
C         48.76921        56.39319        -0.48697
C         50.10831        58.44116        -0.57751
C         48.99744        59.05634        -1.23857
C         52.48834        41.44418         1.88764
C         51.32781        42.16557         1.77269
C         52.54599        44.19874         1.21525
C         51.31892        43.56487         1.39926
C         52.61531        45.56083         0.69066
C         51.37117        46.32473         0.60422
C         52.63520        48.45872         0.66878
C         51.37975        47.75772         0.56148
C         52.59924        49.92921         0.98260
C         51.34127        50.60214         0.52123
C         52.61842        52.69573         0.04181
C         51.34860        51.98147         0.30771
C         52.60541        54.20404        -0.06799
C         51.34357        54.91261         0.21719
C         52.50858        57.04940         0.07825
C         51.26514        56.34504         0.08493
C         52.47799        58.45817         0.00327
C         51.30883        59.17521        -0.30757
C         52.46274        61.32522         0.06259
C         51.40879        60.62964        -0.42611
C         55.05777        39.98874         2.33184
C         54.99354        41.36651         1.94959
C         53.78674        42.04872         1.77094
C         55.06827        44.29124         1.64603
C         53.78520        43.52553         1.63226
C         55.14163        45.71067         1.26534
C         53.95108        46.35114         0.72680
C         55.09892        48.53363         1.02266
C         53.86859        47.81473         0.79097
C         55.10277        49.96462         0.86525
C         53.88726        50.65020         0.65741
C         55.10059        52.76551         0.32908
C         53.89848        52.02941         0.35662
C         55.08152        54.22382         0.23394
C         53.85478        54.93498         0.15568
C         55.01442        57.04761         0.36059
C         53.79584        56.34819         0.21908
C         55.01020        58.51715         0.32936
C         53.72571        59.23663         0.16924
C         54.82466        61.33381         1.13944
C         53.53737        60.58229         0.83193
C         54.72007        62.42601         1.97422
C         57.52837        39.97565         2.36271
C         56.24905        39.33337         2.50834
C         57.55912        41.38417         2.10453
C         56.29864        42.05059         1.73503
C         57.57639        44.29861         1.91117
C         56.35309        43.54602         1.56277
C         57.53671        45.74732         1.87098
C         56.31961        46.42376         1.47893
C         57.54767        48.57911         1.40762
C         56.31715        47.85812         1.28994
C         57.56310        49.99543         1.13031
C         56.34207        50.67747         0.85918
C         57.56385        52.79275         0.61347
C         56.34028        52.08676         0.59938
C         57.58705        54.22403         0.15288
C         56.28495        54.94925         0.34931
C         57.49341        57.09531         0.64347
C         56.26662        56.36779         0.46019
C         57.46179        58.51771         1.03352
C         56.15444        59.24207         0.94505
C         57.36893        61.30748         1.58288
C         56.19404        60.76507         0.78078
C         57.11024        62.36784         2.44454
C         55.85104        62.97607         2.60651
C         59.99058        37.14314         2.37231
C         58.80249        37.85099         2.55859
C         60.02059        39.96293         2.04256
C         58.74197        39.25084         2.43191
C         60.01787        41.46102         2.29294
C         58.74874        42.14263         2.18211
C         59.94486        44.28155         2.76406
C         58.72923        43.58484         2.18817
C         59.92965        45.81047         2.56713
C         58.71163        46.49876         2.06776
C         60.00793        48.61883         1.75376
C         58.74234        47.90062         1.78174
C         60.02745        50.04891         1.42141
C         58.78834        50.72046         1.14431
C         60.01525        52.86972         0.92521
C         58.78017        52.13090         0.89453
C         60.00982        54.30406         0.80721
C         58.79048        54.99241         0.61032
C         59.96467        57.15928         0.66677
C         58.75419        56.41363         0.63273
C         59.84196        58.63740         0.32881
C         58.69830        59.33165         1.02992
C         59.96715        61.44277         1.35946
C         58.68284        60.68061         1.36160
C         60.02950        62.88283         1.72943
C         59.07270        63.57176         2.50569
C         60.12209        65.72624         2.13368
C         59.09774        64.96394         2.68332
C         62.41984        35.76160         1.41366
C         62.41482        37.10315         1.88541
C         61.23825        37.78930         2.23816
C         62.49610        40.03219         2.22880
C         61.25201        39.26439         2.61517
C         62.46484        41.40740         2.19860
C         61.22121        42.14445         2.29868
C         62.52491        44.33065         2.76131
C         61.24168        43.66440         2.18876
C         62.54012        45.81606         2.42445
C         61.24325        46.55197         2.41875
C         62.48782        48.64162         1.72421
C         61.20194        47.93679         1.91737
C         62.48330        50.13432         1.95912
C         61.22536        50.77439         1.40776
C         62.47089        52.90397         1.06389
C         61.23614        52.18058         1.13343
C         62.45112        54.30164         0.96013
C         61.23106        55.03561         0.89210
C         62.42922        57.21136         0.66360
C         61.21842        56.48648         0.73159
C         62.45562        58.66770         0.46066
C         61.14057        59.42066         0.40244
C         62.39987        61.57423         0.57881
C         61.10615        60.82890         0.86646
C         62.43153        62.93557         1.21252
C         61.16603        63.66617         1.38717
C         62.42485        65.81486         1.13925
C         61.21901        65.06952         1.54530
C         62.34649        67.18362         0.77843
C         64.81017        35.82514         0.74527
C         63.54807        35.15897         0.89762
C         64.88962        37.12953         1.29532
C         63.72391        37.77620         1.93382
C         64.93613        40.06396         1.59568
C         63.77600        39.31045         2.13194
C         64.90828        41.45338         1.61339
C         63.78637        42.12935         2.35524
C         64.90034        44.30858         1.91731
C         63.74031        43.62711         2.18994
C         65.02998        45.73649         2.43414
C         63.71851        46.46896         2.25865
C         65.01875        48.69265         2.32485
C         63.77143        47.91359         1.92087
C         64.97663        50.11620         1.75537
C         63.79008        50.75671         1.53359
C         64.94543        52.96156         1.50875
C         63.78503        52.14401         0.91430
C         65.02371        54.35680         0.91015
C         63.71877        55.05733         0.77071
C         64.95474        57.24781         0.47918
C         63.71459        56.54480         1.06756
C         64.91749        58.70937         0.83920
C         63.71837        59.39843         0.77873
C         64.90952        61.55818         0.80375
C         63.68373        60.82157         0.87217
C         64.91722        62.97603         0.71063
C         63.72134        63.70654         1.14217
C         64.93237        65.92313         0.78975
C         63.65177        65.15801         1.00973
C         64.69858        67.24112         0.11012
C         63.45262        67.82644         0.17890
C         66.26355        33.32108        -1.72031
C         65.59885        33.84696        -0.61459
C         66.77367        35.91180        -0.90390
C         65.78184        35.18281        -0.17965
C         67.30161        37.15610        -0.39529
C         66.05602        37.95176         1.22806
C         67.34623        40.03441         0.64469
C         66.08665        39.33815         1.16260
C         67.20709        41.55727         0.63379
C         66.04048        42.22489         1.19364
C         67.30560        44.33072         1.15898
C         66.02645        43.61339         1.35707
C         67.46421        45.75023         1.59837
C         66.24202        46.52078         1.94812
C         67.47839        48.63024         1.59373
C         66.26512        47.89677         1.92194
C         67.50112        50.08944         2.02853
C         66.24733        50.84772         1.64025
C         67.49170        53.02220         1.61819
C         66.25642        52.20598         1.49843
C         67.50076        54.45372         1.24962
C         66.26701        55.16202         1.07410
C         67.44246        57.30554         0.97385
C         66.23350        56.54682         0.90464
C         67.44626        58.70166         0.83770
C         66.18394        59.44263         1.19169
C         67.32634        61.54478         0.34184
C         66.15742        60.86972         0.72245
C         67.28477        62.95646         0.07502
C         66.08063        63.68839         0.32387
C         67.17630        65.76701        -0.37224
C         66.05291        65.10822         0.17224
C         67.14951        67.20592        -0.59446
C         65.81421        67.92089        -0.64336
C         67.09341        70.04721        -0.52093
C         65.94944        69.37826        -0.28059
C         67.46265        32.35137        -4.26530
C         67.66860        33.67042        -3.81336
C         67.03949        34.13845        -2.57422
C         67.91492        36.43352        -3.05576
C         67.24335        35.47013        -2.16109
C         68.16149        37.86035        -2.56069
C         67.80529        38.16381        -1.15640
C         68.97592        40.36766        -1.27506
C         67.72692        39.63361        -0.81058
C         69.21471        41.62168        -0.79594
C         68.22742        42.27684         0.06081
C         69.46577        44.48899        -0.19299
C         68.14601        43.78528         0.02369
C         69.61136        45.84368         0.17027
C         68.75980        46.48716         1.25489
C         69.80298        48.66552         0.71414
C         68.60317        47.98354         1.10658
C         69.96349        50.08515         1.07223
C         68.81745        50.80680         1.70401
C         70.01365        53.01384         1.13982
C         68.82536        52.30834         1.66494
C         69.98503        54.42733         1.04577
C         68.72850        55.12480         1.18379
C         69.99943        57.34917         0.74148
C         68.70878        56.59146         1.16139
C         69.85262        58.72294         0.24830
C         68.62809        59.42362         0.47062
C         69.71049        61.49628        -0.35150
C         68.56185        60.81930         0.15991
C         69.68343        62.91209        -0.56540
C         68.44501        63.65071        -0.35706
C         69.53901        65.69690        -1.30804
C         68.36648        65.03145        -0.62861
C         69.54363        67.21099        -1.20285
C         68.30487        67.90771        -0.91177
C         69.41367        70.06403        -1.40914
C         68.29886        69.36660        -0.97162
C         69.38353        71.48190        -1.68461
C         68.95473        32.70441        -6.13099
C         68.09301        31.87103        -5.40884
C         69.16917        34.01225        -5.70942
C         68.53450        34.52660        -4.55903
C         69.60905        36.79459        -4.77558
C         68.73071        35.92267        -4.16426
C         69.91544        38.08712        -4.23770
C         69.29140        38.60528        -3.13096
C         70.30572        40.91204        -3.28716
C         69.88371        39.78118        -2.36047
C         70.57647        42.12284        -2.78890
C         70.43116        42.37406        -1.30017
C         71.58344        44.58216        -1.37468
C         70.45891        43.85205        -0.96293
C         71.69774        45.93468        -1.07915
C         70.73136        46.58056        -0.28458
C         71.99986        48.74814        -0.33482
C         70.85184        48.00318         0.05750
C         72.09931        50.11904        -0.14187
C         71.08941        50.85446         0.50753
C         72.31510        53.00241         0.30738
C         71.13950        52.27252         0.66606
C         72.32921        54.37132         0.29756
C         71.15812        55.13688         0.58627
C         72.16876        57.20189        -0.39538
C         71.14222        56.53449         0.32161
C         72.10294        58.55150        -0.68222
C         70.95504        59.34449        -0.37376
C         72.03956        61.47140        -1.09795
C         70.90852        60.76604        -0.63536
C         72.02655        62.85630        -1.20332
C         70.86050        63.59343        -0.93385
C         72.02109        65.82258        -1.49042
C         70.86632        65.10979        -0.82470
C         71.91404        67.13144        -1.80028
C         70.68706        67.87869        -1.55897
C         71.49056        69.94206        -2.79657
C         70.75441        69.38587        -1.59542
C         71.31954        71.23545        -3.15119
C         70.31456        72.05115        -2.50546
O         53.47506        45.71134        -0.50425
O         67.84924        44.61552         2.49690
O         56.42418        42.68502         0.38520
O         60.53190        46.46558         3.72713
O         67.03664        37.57142        -3.45521
O         54.62727        59.13425        -0.98039
O         63.28277        48.20287         0.56688
O         63.22620        63.08766         2.41977
O         68.23419        52.84777         2.89075
O         56.56640        58.74271         2.23092
O         69.87761        50.29652         2.57604
O         49.17695        54.74812         1.19435
O         64.04432        38.39337         3.24040
O         67.26097        37.28495         0.99751
O         64.43863        54.57796        -0.43940
O         52.61227        53.35840        -1.27712
O         58.12344        62.88327         3.26102
O         69.60382        57.19657         2.14213
O         61.90573        59.18204        -0.84423
O         54.33477        44.13444         2.92046
O         65.21640        45.55736         3.88006
H         66.09715        45.13545         3.99875
O         48.65734        47.42690         2.18695
H         48.55278        48.28447         2.64993
O         67.44628        50.03424         3.49144
H         68.37834        49.90567         3.79058
O         65.42424        66.24687         2.16011
H         65.33738        65.43238         2.70132
O         68.46379        39.69327         1.48855
H         68.17903        39.76426         2.42270
O         56.47318        61.04588        -0.61836
H         55.83249        60.51735        -1.15637
O         52.95526        60.22773         2.12906
H         52.73893        61.05521         2.60714
O         69.61402        46.40931         2.44320
H         69.42869        45.53671         2.86359
O         47.66845        44.70605        -1.18950
H         48.29236        43.95725        -1.07732
O         63.85443        56.65606         2.51597
H         63.03635        56.31288         2.93289
O         52.50121        50.00050         2.47005
H         53.28223        49.52828         2.83229
O         60.12196        39.82496         0.58948
H         59.34756        40.27731         0.19190
O         62.40396        50.31513         3.40759
H         62.71174        51.22133         3.62164
O         59.87634        44.01031         4.17360
H         60.44903        44.67673         4.62176
O         49.25941        46.65734        -1.31420
H         48.79576        45.98575        -1.87095
O         44.61997        50.22638         1.25429
H         44.55864        51.20332         1.32303
O         62.40845        61.82565        -0.86260
H         62.32529        60.93815        -1.29464
O         70.95654        65.39722         0.59971
H         71.84776        65.13406         0.90921
O         66.20557        59.52357         2.67287
H         67.07046        59.90549         2.93458
O         71.60927        41.77867        -0.65939
H         71.49089        41.85991         0.31076
O         71.07955        39.27087        -1.71434
H         71.50392        40.04083        -1.25537
O         59.41112        58.64950        -1.07794
H         60.24126        58.65278        -1.61159
O         65.00504        48.78365         3.76335
H         65.84234        49.24010         4.02731
O         41.92284        49.49151        -3.41698
H         42.79914        49.69732        -3.80393
O         64.12189        41.95941         3.78439
H         63.46262        42.50060         4.28700
O         57.74345        54.14683        -1.32588
H         57.77161        55.06771        -1.66478
O         48.50633        52.44126        -1.81769
H         47.91579        52.73059        -2.54455
O         69.42818        65.36832        -2.72530
H         68.55412        65.68066        -3.03963
O         64.61565        53.16096         2.91559
H         65.44094        53.37886         3.40040
O         64.89613        57.18551        -0.96803
H         64.79829        56.23381        -1.21458
O         64.00971        51.93794        -0.49865
H         64.00735        52.82681        -0.92870
O         65.40890        67.89069        -2.06380
H         66.03318        68.46558        -2.55583
O         67.33880        44.12370        -1.15754
H         67.66646        43.58860        -1.91104
O         71.56613        69.77422        -0.42923
H         71.59609        70.75476        -0.41778
O         61.18921        39.32601         4.06312
H         62.05525        39.01042         4.40338
O         48.18061        52.36953         1.81447
H         48.83269        52.15519         2.51302
O         40.18997        50.70349        -0.43244
H         39.29685        50.50203        -0.08450
O         61.22597        43.98782         0.77349
H         61.97210        43.52404         0.33798
O         62.57482        44.19599         4.20725
H         63.35706        44.72435         4.49961
O         66.62653        40.12398        -1.63662
H         66.64541        39.65439        -2.49910
H         37.97685        48.67181        -2.26350
H         36.29346        49.43818        -3.90466
H         38.78047        52.81044        -4.92193
H         36.69955        51.50948        -5.24675
H         39.38329        47.94550        -1.08353
H         40.06498        54.11333        -4.08647
H         41.38975        46.74110        -0.47046
H         42.11280        55.38247        -3.72037
H         45.21649        44.50818        -0.19776
H         43.08213        45.70434        -0.52517
H         45.57847        57.73375        -2.76484
H         43.67696        56.36492        -3.39603
H         46.68272        44.05935         1.50938
H         47.13973        58.83603        -2.27139
H         48.74824        42.89771         2.14216
H         49.05422        60.12290        -1.49519
H         52.41682        40.36468         2.08243
H         50.36761        41.64291         1.88565
H         52.50366        62.42116        -0.02409
H         50.58939        61.17831        -0.91313
H         54.12307        39.43245         2.48718
H         53.72723        62.84720         2.20087
H         56.22036        38.27105         2.78561
H         55.74763        63.81900         3.30069
H         59.93934        36.04496         2.34463
H         57.88173        37.27512         2.72780
H         60.12924        66.81594         2.27054
H         58.30583        65.43700         3.27832
H         61.48160        35.18952         1.41507
H         61.38360        67.71005         0.82244
H         63.43160        34.13881         0.51073
H         63.29119        68.81411        -0.27801
H         66.10988        32.26015        -1.96048
H         64.93892        33.16957        -0.05588
H         67.14318        71.12550        -0.31102
H         65.06807        69.91491         0.09961
H         66.79138        31.68216        -3.71013
H         68.54746        72.09335        -1.31494
H         69.45704        32.32968        -7.03344
H         67.91546        30.83900        -5.74116
H         69.83854        34.65509        -6.29707
H         70.20734        36.46154        -5.63530
H         70.76942        38.62162        -4.67941
H         70.42503        40.71274        -4.36289
H         70.91668        42.94371        -3.43845
H         72.37172        44.07804        -1.95068
H         72.57238        46.48110        -1.45444
H         72.83257        48.24168        -0.83882
H         72.98993        50.63228        -0.52873
H         73.23448        52.46045         0.05122
H         73.26267        54.88697         0.03687
H         73.05525        56.64442        -0.72658
H         72.94934        59.00960        -1.21066
H         72.96929        60.93584        -1.33085
H         72.94900        63.36841        -1.50933
H         72.99396        65.31970        -1.59406
H         72.79096        67.67312        -2.18399
H         72.25238        69.32788        -3.29799
H         71.91653        71.67974        -3.96094
H         70.25271        73.11873        -2.75804
