         324
 CSIRO Nanostructure Databank - Neutral Graphene Oxide Data Set
C          1.38910         1.96560        -0.14895
C          1.27232         3.32167         0.04676
C          2.64971         1.32683        -0.20335
C          2.44782         4.18980        -0.01111
C          1.17662         6.40280         0.12120
C          1.12666         7.74355         0.25195
C          2.35385         5.59581         0.51344
C          2.27023         8.54084         0.73859
C          1.18950        10.75947         0.94755
C          1.24408        12.19787         1.05101
C          2.25090        10.02171         0.52156
C          2.30592        12.93694         0.61915
C          1.76094        14.93999         2.07084
C          1.97192        16.25697         2.44767
C          2.34525        14.39247         0.89046
C          2.83799        17.10829         1.70974
C          3.27215        18.38730         2.17939
C          3.84069         2.03748         0.00960
C          3.81834         3.51423         0.00995
C          5.06537         1.38077         0.22901
C          5.01419         4.23639         0.51295
C          3.63170         6.32437         0.87322
C          3.58602         7.82779         0.94341
C          4.95850         5.66758         0.74159
C          4.85946         8.55697         0.74305
C          3.49655        10.70236         0.09277
C          3.39692        12.21866        -0.19591
C          4.80918         9.98079         0.28784
C          4.77576        12.92846        -0.12157
C          3.03862        15.29507         0.07785
C          3.36710        16.62362         0.47423
C          4.79632        14.22282        -0.83381
C          4.36977        17.39298        -0.18324
C          4.29949        19.06394         1.56020
C          4.95311        18.53233         0.39666
C          6.25130         2.09894         0.50723
C          6.19248         3.53882         0.68266
C          7.47885         1.42442         0.62303
C          7.41795         4.25341         1.19633
C          6.12702         6.42097         0.88378
C          6.05403         7.88234         0.82796
C          7.41659         5.73846         0.89852
C          7.32932         8.64870         0.83510
C          6.06292        10.82084         0.48665
C          6.04003        12.12165        -0.26969
C          7.34158        10.03408         0.31920
C          7.19502        12.73724        -0.64024
C          6.00790        14.92905        -1.06624
C          6.04797        16.30138        -1.22211
C          7.29206        14.25131        -0.67414
C          7.27680        17.05029        -1.09066
C          6.18655        19.11036        -0.07197
C          7.26859        18.45883        -0.70096
C          8.71535         2.13117         0.71240
C          8.70385         3.55518         0.81758
C          9.94470         1.44443         0.62327
C          9.91009         4.27034         0.72543
C          8.62183         6.41102         0.81329
C          8.62833         7.89502         0.82089
C          9.90024         5.71623         0.73737
C          9.83103         8.60044         0.34084
C          8.49980        10.60802        -0.14044
C          8.45388        11.95848        -0.76598
C          9.77214         9.89562        -0.10971
C          9.76282        12.73633        -1.02175
C          8.43276        14.84867        -1.49656
C          8.47787        16.35467        -1.24246
C          9.73004        14.18201        -1.15390
C          9.73596        17.03764        -1.20284
C          8.51577        19.14287        -0.76935
C          9.73074        18.47931        -1.01883
C         11.17110         2.14011         0.59214
C         11.15371         3.57731         0.60511
C         12.41144         1.44818         0.53322
C         12.37873         4.29932         0.52066
C         11.10853         6.41230         0.63472
C         11.10381         7.88980         0.61804
C         12.37201         5.73433         0.51889
C         12.38601         8.62668         0.47625
C         11.02024        10.60720        -0.51679
C         11.02616        12.06700        -0.72412
C         12.33370         9.96092        -0.19233
C         12.24862        12.78279        -0.86385
C         10.97063        14.87234        -1.63384
C         10.95276        16.35398        -1.34321
C         12.25586        14.18512        -1.24758
C         12.19245        17.05583        -1.33906
C         10.96506        19.17465        -1.03399
C         12.19289        18.50580        -1.19661
C         13.63383         2.13279         0.45292
C         13.61082         3.58554         0.42371
C         14.87464         1.43157         0.44585
C         14.81679         4.30025         0.30513
C         13.60698         6.44404         0.41355
C         13.67731         7.89453         0.39989
C         14.82733         5.72353         0.31056
C         14.85944         8.60896         0.38802
C         13.54661        10.80762        -0.01799
C         13.48738        12.15214        -0.61329
C         14.84370        10.10351         0.31304
C         14.72451        12.77849        -1.07633
C         13.44846        14.91370        -1.36736
C         13.40272        16.35081        -1.47688
C         14.73363        14.23616        -1.29931
C         14.65399        17.11421        -1.64466
C         13.41960        19.21218        -1.16115
C         14.66369        18.56201        -1.31488
C         16.11123         2.09492         0.30270
C         16.06555         3.55228         0.08135
C         17.36553         1.47527         0.40311
C         17.37575         4.31215         0.27321
C         16.07618         6.42750         0.50969
C         16.15558         7.90937         0.62198
C         17.18044         5.65299         0.78623
C         17.50856         8.65617         0.42032
C         16.12037        10.81743        -0.04843
C         16.02691        12.04787        -0.91316
C         17.43839        10.10305        -0.03202
C         17.27752        12.83099        -1.04523
C         15.94048        14.90877        -1.37127
C         15.96866        16.36793        -1.61078
C         17.21149        14.22468        -1.24609
C         17.19469        17.09906        -1.23471
C         15.88020        19.22535        -1.13652
C         17.14217        18.54187        -1.01981
C         18.62059         2.18143         0.34623
C         18.67609         3.61081         0.37539
C         19.83372         1.46446         0.26327
C         19.90335         4.30779         0.14036
C         19.04776         6.63998         0.59782
C         18.81594         7.97053         0.15196
C         19.99107         5.77667         0.03315
C         19.87371         8.56538        -0.54763
C         18.51328        10.67360        -0.92750
C         18.51004        12.15461        -1.07570
C         19.78941         9.92087        -1.12704
C         19.70212        12.85226        -1.35419
C         18.43012        14.95580        -1.27981
C         18.38324        16.40292        -1.12834
C         19.66320        14.26948        -1.36568
C         19.59632        17.08483        -0.72015
C         18.27296        19.20948        -0.58597
C         19.49183        18.46588        -0.11061
C         21.03960         2.13143        -0.05820
C         21.04238         3.55260        -0.20489
C         22.24814         1.41716        -0.26847
C         22.13849         4.15407        -1.05110
C         21.08507         6.41158        -0.63578
C         21.06422         7.83381        -0.81339
C         22.23065         5.65183        -0.99227
C         22.17270         8.48810        -1.44225
C         21.05125        10.64513        -1.41830
C         20.96372        12.10698        -1.61577
C         22.25814         9.96272        -1.54890
C         22.27688        12.86877        -1.56338
C         20.91034        15.06965        -1.32602
C         20.78991        16.42777        -0.73989
C         22.23987        14.35004        -1.31149
C         21.98595        17.07450        -0.15817
C         20.78874        19.22969        -0.21579
C         21.99732        18.56280        -0.10043
C         23.46458         2.05026        -0.64746
C         23.48501         3.47795        -0.95950
C         24.64021         1.31370        -0.70273
C         24.63532         4.14395        -1.31611
C         23.33262         6.28657        -1.57181
C         23.16862         7.64802        -1.93360
C         24.63378         5.57798        -1.71604
C         25.03908         8.67678        -1.90965
C         23.55357        10.68132        -1.52613
C         23.52433        12.12128        -1.26854
C         24.82660        10.04482        -1.48125
C         24.64106        12.83963        -0.86276
C         23.40088        14.95624        -0.63639
C         23.28339        16.32951        -0.11714
C         24.58886        14.25560        -0.51693
C         24.51786        17.08417         0.10956
C         23.24055        19.21209         0.12169
C         24.45861        18.49966         0.29429
C         25.90110         1.91333        -1.12155
C         25.93318         3.42870        -1.42852
C         27.13194         1.27352        -0.67639
C         27.19868         4.16363        -1.15733
C         26.01003         6.35485        -1.62651
C         26.02676         7.83891        -1.44746
C         27.18944         5.59377        -1.11673
C         27.30381         8.54081        -1.06091
C         25.98697        10.69305        -0.91469
C         26.00514        12.19970        -0.88236
C         27.12108         9.96355        -0.57193
C         26.94096        12.77648         0.15470
C         25.77129        14.94790         0.00137
C         25.72401        16.36255         0.24747
C         26.95782        14.25102         0.28729
C         26.90064        17.04423         0.68899
C         25.64995        19.17250         0.67491
C         26.84434        18.47406         0.91709
C         28.31321         1.98284        -0.59277
C         28.34676         3.40895        -0.81441
C         29.51607         1.27495        -0.19476
C         29.62820         4.08716        -0.56913
C         28.28234         6.31170        -0.50994
C         28.24878         7.68424        -0.27380
C         29.57292         5.60774        -0.30006
C         29.30887         8.36564         0.48734
C         28.28317        10.58822         0.02039
C         28.19866        12.01272         0.43515
C         29.38466         9.84690         0.41248
C         29.37750        12.76056         0.87835
C         28.11283        14.90672         0.79176
C         28.08716        16.31933         0.92797
C         29.31277        14.14322         1.14379
C         29.29976        17.06361         1.31429
C         27.97325        19.14732         1.45807
C         29.16908        18.47096         1.74267
C         30.67835         1.91839         0.09484
C         30.75973         3.35105         0.01552
C         31.85106         4.04628         0.50503
C         30.66071         6.19011         0.49412
C         30.51948         7.58970         0.96497
C         31.79824         5.44656         0.73668
C         31.73373         8.35855         1.32804
C         30.65773        10.51315         0.75141
C         30.65642        12.05162         0.98896
C         31.77354         9.70042         1.27819
C         31.70716        12.70015         1.76718
C         30.43742        14.78496         1.75016
C         30.51465        16.25902         1.82889
C         31.56198        14.00948         2.14687
C         31.40666        16.96063         2.74652
C         30.25049        19.08780         2.39786
C         31.32174        18.32654         2.91373
O          2.78168         5.70223         1.90374
O         16.93368         8.45378         1.73637
O          8.99870        11.99341        -2.09829
O         15.31917        11.91447        -2.17864
O         15.37604        16.78811        -2.89001
O         11.83012         9.88003        -1.55470
O         17.07391        11.02217         1.04061
O         24.09737         8.18612        -2.81921
O         22.37284        16.41032         1.10571
O         25.45214         5.85427        -2.88098
O         30.45628        16.83536         0.46846
O         21.67267        12.52035        -2.83681
O          4.84924        16.98789        -1.44453
O          8.09632         8.46580         2.07632
O          4.19060        10.05378        -1.04699
O          3.59685        14.83560        -1.12885
O          4.92513        13.80328         1.03654
O         11.76973         8.53107         1.79628
O         18.20225         6.14413         1.59999
O         21.78799        15.08484        -2.50936
O         30.03137         5.05229        -1.58276
O         27.04050        12.09867         1.42683
O         14.07277        10.77418         1.36449
O         25.95884         2.44888        -2.50088
O         16.79536         4.08648        -1.06652
O         29.39993         7.84019         1.88579
O         31.10937        11.43930        -0.29001
O          2.78240         8.27316         2.09112
O          3.25452         4.08589        -1.22828
O         18.73155         9.97246        -2.18812
O         21.67433         3.88087        -2.42873
H         22.38985         4.15242        -3.04371
O         10.90985        14.76719        -3.13027
H         11.12927        13.83723        -3.36086
O          7.33956         4.15620         2.66702
H          8.03346         4.74094         3.04047
O         28.01891         8.72702        -2.35148
H         28.07743         7.84897        -2.78824
O          8.13083        14.64354        -2.90298
H          8.98201        14.76695        -3.39084
O          7.54465        14.59407         0.71660
H          6.70275        14.36945         1.19983
O         19.28171        18.26326         1.34149
H         20.06904        17.78476         1.68290
O          2.96209        12.30500        -1.57497
H          3.35616        11.54263        -2.05626
O          6.03707        11.23288         1.89176
H          5.69899        12.16003         1.94108
O         26.60355        12.61308        -2.15625
H         26.05031        12.25784        -2.88428
H          0.48351         1.34245        -0.16319
H          0.29642         3.76242         0.29531
H          2.69115         0.23050        -0.27566
H          0.32945         5.87353        -0.34043
H          0.24349         8.29115        -0.11018
H          0.28885        10.24984         1.31863
H          0.39815        12.69409         1.54825
H          1.17370        14.28671         2.73195
H          1.53634        16.62739         3.38654
H          2.82340        18.79586         3.09597
H          5.10455         0.28248         0.17455
H          4.67357        20.00440         1.99018
H          7.49937         0.32924         0.52097
H          6.40674        20.12055         0.31348
H          9.94448         0.34600         0.56558
H          8.54064        20.21829        -0.53518
H         12.40753         0.34825         0.54666
H         10.96353        20.26787        -0.90853
H         14.86230         0.33865         0.57244
H         13.40309        20.29565        -0.96857
H         17.40403         0.38046         0.50997
H         15.86238        20.30553        -0.92437
H         19.82209         0.36561         0.30980
H         18.22050        20.29180        -0.39139
H         22.25492         0.32811        -0.11333
H         20.76383        20.32859        -0.15579
H         24.65066         0.27482        -0.33996
H         23.25319        20.30732         0.22480
H         27.09686         0.22218        -0.35480
H         25.62025        20.25883         0.84688
H         29.45167         0.18132        -0.10225
H         27.89371        20.22055         1.68719
H         31.56197         1.35738         0.43170
H         32.72574         3.48794         0.86819
H         32.65081         5.90296         1.25779
H         32.62893         7.80986         1.65317
H         32.70856        10.22040         1.52901
H         32.64634        12.17091         1.97239
H         32.38753        14.49956         2.68124
H         32.13519        16.38809         3.33713
H         30.18760        20.15845         2.63853
H         32.05908        18.83067         3.55495
