         621
 CSIRO Nanostructure Databank - Neutral Graphene Oxide Data Set
C          5.88031        31.78730         0.23850
C          5.89986        33.14768         0.15414
C          8.28056        27.44920         0.20828
C          8.27384        28.84733         0.05501
C          7.06739        29.61301         0.15156
C          8.30239        31.69218        -0.26864
C          7.07614        30.99834         0.04201
C          8.31102        33.09826        -0.42980
C          7.10170        33.87055        -0.19529
C          8.26600        35.98594        -0.75052
C          7.11582        35.25254        -0.27777
C          8.29510        37.35296        -0.77471
C         10.60347        23.09907         0.77666
C         10.68505        24.53367         0.42974
C          9.50199        25.28813         0.38788
C         10.73315        27.39805         0.08397
C          9.48986        26.70011         0.20167
C         10.74045        28.82813        -0.09078
C          9.51181        29.54431        -0.16289
C         10.73201        31.64197        -0.70609
C          9.51733        30.95538        -0.39048
C         10.69411        33.02964        -1.02673
C          9.49653        33.75217        -0.84959
C         10.70254        35.92285        -1.58004
C          9.42216        35.18148        -1.23060
C         10.70006        37.42874        -1.62411
C          9.38549        38.18927        -1.40632
C         10.78712        40.23205        -0.67615
C          9.60078        39.49172        -0.66441
C         10.75073        41.56155        -0.06910
C         13.23521        18.79717         0.70332
C         13.11432        20.20848         0.63503
C         11.82579        20.79492         0.72434
C         13.44256        23.20384         0.12925
C         11.52524        22.15971         0.36210
C         13.23735        24.58532         0.67495
C         11.93142        25.24901         0.29582
C         13.21345        27.39379         0.31925
C         11.93959        26.64507         0.15759
C         13.20536        28.89622         0.21101
C         11.95339        29.56420        -0.16260
C         13.22418        31.61715        -0.63127
C         11.97853        30.92768        -0.55138
C         13.26795        32.97348        -1.17539
C         11.92822        33.73798        -1.44509
C         13.19176        35.92380        -1.27428
C         11.97694        35.20602        -1.44297
C         13.20935        37.33186        -1.18629
C         12.00766        38.15043        -1.43320
C         13.30333        40.23061        -1.01485
C         12.01899        39.59712        -1.08680
C         13.42987        41.64985        -1.05429
C         11.65049        42.58036        -0.37576
C         13.29036        44.39718         0.23168
C         11.99827        43.77493         0.29804
C         13.37428        45.75931         0.67049
C         15.74605        14.56943         0.50261
C         15.75820        15.94476         0.68700
C         14.51775        16.67994         0.70391
C         15.73656        18.79604         0.44971
C         14.45940        18.06997         0.67137
C         15.68665        20.28696         0.40841
C         14.41969        20.98514         0.86772
C         15.72370        23.17464         0.89308
C         14.49673        22.46208         0.55484
C         15.75030        24.63241         0.70015
C         14.50991        25.34374         0.41908
C         15.77821        27.41691        -0.01557
C         14.50402        26.68021         0.18748
C         15.76588        28.90526         0.05770
C         14.46805        29.62327         0.04688
C         15.78692        31.64701        -0.41897
C         14.44852        30.95433        -0.29684
C         15.62314        33.14658        -0.30511
C         14.44998        33.79973        -0.89628
C         15.69994        35.87807        -1.03049
C         14.43496        35.17976        -1.01852
C         15.67647        37.32582        -1.32395
C         14.47207        38.01179        -0.71807
C         15.75945        40.17994        -0.81637
C         14.51142        39.49701        -0.92496
C         15.77836        41.56883        -0.51703
C         14.57798        42.34101        -0.58098
C         15.77442        44.24831         0.42808
C         14.50812        43.69355        -0.10660
C         15.79581        45.60967         1.04627
C         14.57739        46.44277         0.94734
C         15.87639        48.51351         1.51448
C         14.65678        47.82347         1.18192
C         15.90592        49.88144         1.64537
C         18.33316        10.33616        -0.34892
C         18.25629        11.68986         0.05466
C         17.05850        12.40910         0.04865
C         18.25661        14.51053         0.90789
C         16.95422        13.75433         0.62459
C         18.23418        15.98309         0.91344
C         17.02642        16.66378         0.83239
C         18.17478        18.82344         1.00959
C         17.02036        18.11692         0.75890
C         18.23390        20.29509         0.90581
C         16.96609        21.05318         0.61101
C         18.22581        23.22979         0.99069
C         16.90775        22.48744         0.96561
C         18.05553        24.65761         1.52390
C         16.92358        25.32476         0.80029
C         18.19180        27.50397         0.88445
C         17.10971        26.68408         0.19594
C         18.15521        28.95487         0.82214
C         16.99445        29.62743         0.44949
C         18.08227        31.90755         0.71211
C         16.77084        31.11686         0.64989
C         18.19852        33.22339         0.04391
C         16.92752        33.92595        -0.22709
C         18.19036        35.86397        -1.21670
C         16.90570        35.25078        -0.82550
C         18.23988        37.31951        -1.36972
C         16.97806        38.06744        -1.39282
C         18.25632        40.11204        -0.95983
C         17.00336        39.47757        -1.00080
C         18.34379        41.48391        -0.41727
C         17.04558        42.20376        -0.14536
C         18.29716        44.35363         0.13672
C         17.07478        43.64789         0.06862
C         18.33124        45.66259         0.68232
C         17.12456        46.26352         1.29357
C         18.44042        48.45043         1.74610
C         17.12599        47.71714         1.69323
C         18.42586        49.92768         2.03270
C         17.10593        50.72227         2.01220
C         18.31993        52.72393         1.05423
C         17.19436        51.96533         1.11997
C         18.31663        54.13413         0.64932
C         20.80787         6.45410        -2.18709
C         20.78505         7.69613        -1.51357
C         19.60475         8.32208        -1.09574
C         20.78210        10.36903        -0.41347
C         19.57403         9.65955        -0.56422
C         20.82723        11.69991         0.18536
C         19.50717        12.37431         0.48882
C         20.73739        14.47046         1.27230
C         19.56366        13.89428         0.45514
C         20.72480        16.00552         1.14870
C         19.51673        16.66192         1.07380
C         20.69642        18.91440         1.52324
C         19.42627        18.11593         1.36679
C         20.63943        20.39636         1.47889
C         19.42530        21.03073         1.39235
C         20.60838        23.26532         1.74125
C         19.31304        22.48250         1.78115
C         20.55408        24.68299         1.72718
C         19.36348        25.40868         1.49051
C         20.52222        27.62332         1.72883
C         19.31741        26.83483         1.37577
C         20.58513        29.05108         1.33744
C         19.39217        29.69734         1.07945
C         20.63743        31.88988         0.74200
C         19.36912        31.17541         0.97392
C         20.64641        33.19684         0.31788
C         19.41582        33.84672        -0.11175
C         20.71061        35.97189        -0.80902
C         19.48544        35.15242        -0.82944
C         20.71452        37.27494        -1.24217
C         19.45632        37.99540        -1.40299
C         20.68729        40.19702        -1.44537
C         19.44338        39.43008        -1.30325
C         20.69709        41.62896        -1.07427
C         19.56796        42.28527        -0.63942
C         20.69603        44.46229        -0.53290
C         19.54028        43.71941        -0.35746
C         20.68575        45.92031        -0.28180
C         19.48529        46.53109         0.39173
C         20.87237        48.66158         0.85736
C         19.66697        47.83098         1.11841
C         20.91240        50.00985         1.28987
C         19.70064        50.69057         1.84539
C         20.82037        52.81484         1.08856
C         19.58730        52.22699         1.75229
C         20.76539        54.22324         0.65079
C         19.44398        54.89711         0.59188
C         20.76318        57.00134        -0.01380
C         19.43048        56.39811         0.40789
C         20.71892        58.45423        -0.41789
C         23.18801         4.15548        -3.95368
C         22.01421         4.66320        -3.37915
C         23.22796         6.69359        -2.72007
C         22.00084         5.92503        -2.74414
C         23.25661         7.95558        -2.11251
C         22.07979         8.38878        -1.33475
C         23.10559        10.75171        -1.32883
C         22.06761         9.78622        -0.80119
C         23.19988        12.02151        -0.51314
C         22.06152        12.52023         0.10210
C         23.28832        14.67740         0.69663
C         22.06217        13.81437         0.84198
C         23.25314        16.13129         0.95951
C         22.00642        16.74126         1.55446
C         23.13568        18.98120         1.09707
C         21.97652        18.23586         1.31525
C         23.07695        20.46860         1.06688
C         21.85960        21.15244         1.53145
C         23.11636        23.26351         1.80332
C         21.85107        22.56031         1.68321
C         23.08259        24.66526         2.29300
C         21.78753        25.40931         2.12695
C         23.08445        27.60321         1.75371
C         21.79150        26.91042         2.06081
C         23.07481        29.08637         1.60620
C         21.86794        29.74204         1.39707
C         23.19394        31.90375         0.97399
C         21.87003        31.21217         1.21248
C         23.20218        33.25408         0.37416
C         21.91476        33.97956         0.31791
C         23.24884        35.95684        -0.64037
C         21.94786        35.36399        -0.26736
C         23.26437        37.30387        -1.06821
C         22.02213        37.92963        -1.66767
C         23.26540        40.18413        -1.29420
C         22.01061        39.46286        -1.60422
C         23.24606        41.61258        -1.24634
C         21.95579        42.34708        -1.34110
C         23.24021        44.48384        -0.79647
C         21.94322        43.84008        -1.04774
C         23.24004        45.94427        -0.60308
C         21.98302        46.67689        -0.26250
C         23.30498        48.64933         0.49462
C         22.07267        48.01645         0.39404
C         23.36279        50.13810         0.61958
C         22.10959        50.74197         1.18379
C         23.32097        52.87749         1.23903
C         22.13631        52.16390         1.31230
C         23.31867        54.34960         1.11728
C         22.00864        55.04062         0.79456
C         23.23971        57.07497        -0.01607
C         21.96772        56.39122         0.17783
C         23.27232        58.33371        -0.73158
C         22.02219        58.98133        -0.97788
C         23.10888        60.66043        -2.36184
C         21.95656        60.13728        -1.74980
C         24.37551         4.87596        -3.92400
C         25.61929         6.90594        -3.23623
C         24.42701         6.16228        -3.31258
C         25.64783         8.19389        -2.64976
C         24.43460         8.75447        -2.11234
C         25.60054        10.86706        -1.62929
C         24.43178        10.09666        -1.62532
C         25.59237        12.26432        -1.22192
C         24.41150        12.78665        -0.64660
C         25.54308        15.05532        -0.45022
C         24.32203        14.20213        -0.26698
C         25.65133        16.31277         0.30062
C         24.39905        16.89892         0.77770
C         25.66031        19.04888         0.78350
C         24.37963        18.32503         0.91398
C         25.67727        20.55160         0.88631
C         24.36569        21.27932         0.99976
C         25.58858        23.33542         1.80887
C         24.33003        22.63736         1.58443
C         25.62273        24.68339         2.03941
C         24.39450        25.43313         2.52653
C         25.57542        27.71546         2.37177
C         24.36479        26.87507         1.98789
C         25.59645        29.08956         1.71403
C         24.36748        29.75827         1.45845
C         25.64310        31.69339         0.60814
C         24.42278        31.09532         0.98584
C         25.61774        33.02667        -0.06223
C         24.38386        33.85321         0.01000
C         25.70016        35.89127        -0.67381
C         24.44267        35.23543        -0.44035
C         25.71297        37.29768        -0.92573
C         24.48061        38.00233        -1.10962
C         25.71708        40.13222        -1.13394
C         24.48380        39.45300        -1.20590
C         25.69416        41.58965        -0.94655
C         24.43076        42.33283        -1.05113
C         25.69305        44.50052        -1.03597
C         24.45130        43.77871        -0.90246
C         25.72267        45.94957        -0.90442
C         24.54578        46.54124        -0.19971
C         25.88947        48.64127         0.37693
C         24.58332        47.92569         0.34406
C         25.91908        49.96907         1.06095
C         24.61894        50.69654         1.27770
C         25.90657        52.98061         1.12162
C         24.62308        52.19931         1.39901
C         25.82212        54.41181         0.67979
C         24.57845        55.06039         0.76459
C         26.12696        57.21730        -0.56243
C         24.39527        56.45688         0.48091
C         25.70035        58.14651        -1.50153
C         24.44341        58.83697        -1.41342
C         24.31214        59.99650        -2.22755
C         26.83859         8.95379        -2.57376
C         28.03714        11.00900        -1.95730
C         26.83671        10.26294        -2.06034
C         28.07300        12.37461        -1.62073
C         26.80401        13.05950        -1.34387
C         27.84235        15.33353        -1.08939
C         26.76253        14.42475        -0.96669
C         28.03307        16.47450        -0.26251
C         26.86397        16.95734         0.43234
C         28.20240        19.04178         1.05887
C         26.90488        18.25992         1.19395
C         28.08555        20.41858         1.54372
C         26.89330        21.14800         1.45945
C         28.16668        23.28566         2.15360
C         26.84035        22.53497         1.93940
C         28.20445        24.76129         2.10902
C         26.89343        25.45134         1.97283
C         28.12464        27.67588         2.36337
C         26.85751        26.94104         2.05685
C         28.09456        29.13952         2.03481
C         26.82553        29.75884         1.52706
C         28.15364        31.66547         0.53489
C         26.85473        31.03342         0.90116
C         28.19982        33.00946        -0.14811
C         26.90802        33.71313        -0.43269
C         28.16759        35.86019        -0.70247
C         26.93547        35.18912        -0.56556
C         28.16653        37.24752        -1.03700
C         26.95995        37.97639        -1.09306
C         28.16761        40.12377        -1.42837
C         26.96367        39.42722        -1.22887
C         28.18670        41.58017        -1.56406
C         26.98980        42.35378        -1.13555
C         28.27551        44.58579        -1.34255
C         26.91535        43.81828        -1.41624
C         28.29979        45.97309        -0.89144
C         27.05719        46.74432        -0.82031
C         28.35261        48.62398         0.27810
C         27.03386        48.02993        -0.05428
C         28.41119        50.05778         0.73694
C         27.14406        50.79515         0.91976
C         28.33659        52.88014         0.45763
C         27.12232        52.16661         0.83042
C         28.23326        54.21264         0.06596
C         27.02430        54.98024         0.07434
C         27.08517        56.18335        -0.66749
C         29.37771        12.93096        -1.40231
C         30.68193        15.08322        -0.85223
C         29.67120        14.30621        -1.41458
C         30.52382        16.51068        -0.64333
C         29.29442        17.13845        -0.16017
C         30.65727        19.11353         0.46174
C         29.37159        18.42646         0.53002
C         30.97797        20.22851         1.24512
C         29.23356        21.14958         2.03275
C         30.74518        23.17646         2.05822
C         29.40255        22.51587         1.98728
C         30.71350        24.70505         2.19405
C         29.39461        25.42683         2.19871
C         30.71667        27.66532         2.23068
C         29.42606        26.90713         2.41087
C         30.68088        29.12752         1.91392
C         29.40072        29.86580         1.88845
C         30.67902        31.82421         0.79321
C         29.40078        31.22457         1.22993
C         30.66690        33.13494         0.21453
C         29.44923        33.80904        -0.10798
C         30.68764        35.85428        -0.69221
C         29.43810        35.16070        -0.50132
C         30.71219        37.23165        -1.13766
C         29.43572        37.88575        -1.43156
C         30.72514        40.14298        -1.49031
C         29.43691        39.42932        -1.67037
C         30.74925        41.54646        -1.34402
C         29.52303        42.32695        -1.53357
C         30.78327        44.48929        -1.23524
C         29.48690        43.73550        -0.94901
C         30.75382        45.87586        -0.61779
C         29.54701        46.56923        -0.53689
C         30.86088        48.68100         0.05262
C         29.56254        48.08201        -0.45248
C         30.86430        50.07075         0.32887
C         29.66462        50.80459         0.48329
C         29.58349        52.19404         0.37380
C         31.68104        17.28727        -0.78985
C         32.89699        19.41932        -0.52006
C         31.73752        18.63581        -0.36482
C         33.00345        20.71659         0.04359
C         31.96074        21.20076         0.91334
C         33.07284        23.36260         1.12922
C         31.94501        22.55263         1.39719
C         33.10247        24.78482         1.41051
C         31.91863        25.47974         1.79065
C         33.13730        27.60287         1.69223
C         31.93192        26.89071         1.84431
C         33.13154        29.07174         1.85902
C         31.85071        29.80211         1.63705
C         33.12801        31.85897         0.92643
C         31.87648        31.17264         1.13976
C         33.12103        33.15732         0.37517
C         31.90697        33.81400         0.00267
C         33.15618        35.74826        -1.00072
C         31.89655        35.14799        -0.50554
C         33.18899        37.19139        -1.41573
C         31.91205        37.95651        -1.34924
C         33.20519        40.13933        -1.45186
C         31.92668        39.37562        -1.46115
C         33.19290        41.54577        -1.00849
C         31.97155        42.26216        -1.02817
C         33.19918        44.34689        -0.55569
C         31.98974        43.66768        -0.85811
C         33.19075        45.76868        -0.33051
C         32.01285        46.52364        -0.32829
C         32.02202        47.91469         0.02623
C         34.16151        21.50233        -0.09892
C         35.44291        23.50627         0.39906
C         34.23046        22.77734         0.48524
C         35.51845        24.84017         0.80450
C         34.31196        25.51816         1.22284
C         35.60468        27.64645         1.30483
C         34.35122        26.92397         1.42618
C         35.67522        29.03872         1.43214
C         34.43127        29.80580         1.70480
C         35.60163        31.84196         1.09272
C         34.38129        31.21088         1.24997
C         35.65938        33.25127         0.68517
C         34.38359        33.91863         0.28112
C         35.71782        35.87978        -0.63043
C         34.46100        35.08494        -0.65368
C         35.73990        37.22332        -0.88515
C         34.52568        37.91727        -1.38713
C         35.71824        40.11778        -0.83799
C         34.53730        39.41544        -1.39534
C         35.64632        41.47815        -0.60551
C         34.41302        42.21537        -0.71001
C         34.39269        43.60030        -0.44601
C         36.74441        25.55108         0.72429
C         38.03417        27.63553         0.83043
C         36.80932        26.92286         0.98165
C         38.13743        29.01067         1.00902
C         36.91886        29.74665         1.32147
C         38.02631        31.98416         1.40284
C         36.85157        31.16827         1.31989
C         38.18056        33.19538         0.74267
C         36.95622        33.76390         0.15137
C         38.24905        35.90404        -0.27298
C         36.98601        35.15427        -0.41014
C         38.19683        37.28622        -0.40192
C         36.97144        37.98388        -0.67166
C         36.92120        39.37463        -0.62158
C         39.41145        29.63045         0.63637
C         40.87276        31.73652         0.54662
C         39.83825        30.85763         1.06545
C         40.69848        33.08924         0.42597
C         39.44489        33.83330         0.45332
C         39.44121        35.16434         0.01012
O         22.48615         8.69106         0.06475
O         29.39757        38.47961        -2.76869
O         34.99442        34.20307         1.59265
O         19.28518        50.22485         3.16402
O         17.58798        13.84851         1.98323
O         27.61440        44.29787        -2.59288
O         19.40661        47.72288         2.55288
O         21.84974        35.16049         1.19982
O         33.97293        37.38080        -2.62733
O         24.42885        15.08835        -1.43285
O         17.12856        46.67772         2.71297
O         28.72610        15.09957        -2.12347
O         30.23183        27.29346         3.56640
O         23.85073        26.97487         0.64160
O         21.84113        43.31443        -2.42691
O         28.82757        42.07472        -2.77596
O         11.41365        37.90825        -2.80144
O         22.20299        24.87764         3.44734
O         34.06103        39.97364        -2.64978
O         22.53950        31.92757         2.30211
O         37.04448        33.95725        -1.29241
O         12.69236        33.09583        -2.51243
O         19.67886        46.65911        -1.06868
O         20.22551        11.73326         1.55078
O         22.52769        55.04167         2.16171
O         18.93283        35.06469        -2.19669
O         25.21359        49.97240         2.36325
O         27.38754        22.75272         3.28821
O         25.85807        19.87049        -0.40397
O         12.39429        42.37722        -1.58589
O         17.91753        20.78818        -0.48146
O         13.16049        28.21375         1.54915
O         26.88565        26.33026         0.73961
O         26.11863        33.02333        -1.45214
O         27.96382        28.64646         3.42876
O         23.54495        21.10205        -0.18613
O         30.98209        23.83368         3.34302
O         30.31109        20.37380         2.45771
O         16.03274        33.76654         0.93986
O         15.84535        28.18166        -1.27296
O         39.10001        31.44786         2.11743
O         20.77111        53.12603        -0.35790
O         28.36615        31.76316        -0.91000
O         33.85860        29.55893         3.04327
O          9.80948        35.38583        -2.62630
O         29.34366        31.10799         2.68172
O         21.00364        27.49132         3.13427
O         21.32757        40.01168        -2.78028
O         19.43152        52.77156         3.03769
O         18.61750        31.85157         2.07312
O         16.11072        37.77202        -2.61766
O         23.09711        13.83955         1.88703
O         17.81288        41.51751         0.94624
O         15.63553        44.44366         1.91505
O         22.54097        46.72038        -1.63432
O         12.43074        22.63303        -0.62170
O         25.49742        57.28634         0.69894
O         24.67048        46.70504         1.23648
O         26.22055        46.74053        -2.02030
O         28.56762        48.92292         1.67734
O         15.66319        19.55208        -0.83100
O         33.84649        34.84975        -1.94719
O         26.54836        42.03327         0.20467
O         25.41468        52.74779         2.48712
O         19.94737        18.42003         2.72660
O         17.62548        24.66982         2.91019
H         18.15863        24.00252         3.40799
O         29.40404        48.54897        -1.82730
H         30.01216        48.03583        -2.40005
O         18.69774        23.36287        -0.36365
H         18.58283        22.48555        -0.80663
O         14.59774        37.77091         0.72707
H         13.94268        38.33301         1.19138
O         22.55581        11.16176        -2.62951
H         23.17726        11.80822        -3.02797
O         18.90629        22.41343         3.19639
H         19.64456        22.01066         3.70204
O         19.05746        57.01193         1.66020
H         19.58260        56.59609         2.37591
O         17.66294        26.41106        -1.12813
H         17.30239        27.10582        -1.73025
O         16.10098        31.24101         1.92037
H         16.79753        31.40433         2.59881
O         13.15841        24.38631         2.13355
H         13.12927        25.27492         2.55042
O         24.61287        25.48941         3.94983
H         23.72771        25.48787         4.38526
O         26.73045        17.98577         2.61389
H         27.52906        17.52254         2.94238
O         19.65738        58.67808        -1.36027
H         19.91331        58.27071        -2.21296
O         22.13293        37.58219        -3.07937
H         21.64757        38.27759        -3.58316
O         20.51249        14.18528         2.65303
H         21.35263        14.37687         3.12870
O         22.07717        16.56512         3.01910
H         21.31076        17.07151         3.38429
O         16.89019        51.25145         3.33810
H         17.74089        51.70049         3.58987
O          8.88313        38.58535        -2.71659
H          9.67116        38.64891        -3.30662
O         25.45083        27.92962         3.78788
H         26.28139        28.36345         4.10308
O         16.37583        31.36009        -1.70842
H         15.68292        31.41290        -2.39959
O         29.40271        43.52899         0.48254
H         29.57706        44.38200         0.93543
O         30.85207        44.69582        -2.67342
H         31.76772        44.95690        -2.90430
O         14.54317        20.95264         2.33180
H         13.91517        21.60791         2.70596
O         19.80274        14.29360        -0.91731
H         19.05495        13.99242        -1.47489
O         23.48094        50.64836        -0.76503
H         22.67112        50.39189        -1.25742
H          4.94512        31.26287         0.48388
H          4.97973        33.72468         0.32790
H          7.32630        26.92092         0.35432
H          6.12183        29.09003         0.35979
H          6.20553        35.81931        -0.03038
H          7.40756        37.90263        -0.42347
H          9.77501        22.79645         1.43525
H          8.53810        24.77444         0.52298
H          8.69011        39.99307        -0.30013
H          9.97369        41.74593         0.68745
H         12.30503        18.20641         0.73807
H         10.98829        20.12863         0.99317
H         11.26756        44.22109         0.98912
H         12.42895        46.31247         0.77992
H         14.80182        14.06878         0.24094
H         13.58204        16.10253         0.75698
H         13.73771        48.42483         1.10607
H         14.95898        50.43145         1.52069
H         17.39887         9.80285        -0.57810
H         16.14603        11.93640        -0.34479
H         16.24320        52.37360         0.74019
H         17.33409        54.60986         0.49856
H         19.87154         5.88705        -2.30117
H         18.64667         7.80257        -1.24780
H         18.64837        56.69677        -0.33705
H         20.44358        59.04516         0.50105
H         23.16611         3.16661        -4.43299
H         21.08909         4.07006        -3.41492
H         23.04224        61.57287        -2.96996
H         20.98316        60.62541        -1.89798
H         25.28806         4.45766        -4.37227
H         26.54777         6.48361        -3.64877
H         26.31142        58.31748        -2.40078
H         25.20642        60.37473        -2.74342
H         27.78013         8.52230        -2.94477
H         28.98617        10.50032        -2.18384
H         29.13941        54.70931        -0.31303
H         27.91767        56.29994        -1.37869
H         30.19449        12.21958        -1.20781
H         31.64734        14.63302        -0.57809
H         31.82662        50.60343         0.38019
H         30.48629        52.77350         0.12885
H         32.57909        16.83102        -1.23044
H         33.74663        19.01358        -1.08728
H         34.14320        46.26257        -0.08787
H         32.97888        48.37301         0.31958
H         35.02090        21.11754        -0.66643
H         36.33263        23.01300        -0.01886
H         36.54343        42.01494        -0.26284
H         35.33141        44.11473        -0.19315
H         37.65355        25.01110         0.42119
H         38.92843        27.06628         0.53546
H         39.11110        37.88155        -0.25852
H         37.83364        39.93208        -0.36173
H         40.02786        29.07786        -0.08896
H         41.83396        31.29976         0.23297
H         41.56395        33.66926         0.06545
H         40.40743        35.67544        -0.12304
