         276
 CSIRO Nanostructure Databank - Neutral Graphene Oxide Data Set
C        -10.59671         0.98600        -1.35625
C        -10.20308         1.62027        -0.02852
C         -8.92620         0.85984         0.47532
C         -7.60944         1.54514         0.84785
C         -6.27871         0.82239         0.45022
C         -5.03942         1.56199         0.85556
C         -3.89847         0.81648         1.53952
C         -2.54785         1.58406         1.40773
C         -1.24607         0.85050         1.53757
C          0.07557         1.58566         1.26869
C          1.40790         0.77676         1.36244
C          2.57911         1.47890         0.60863
C          3.68353         0.59759         0.06892
C          4.82307         1.24914        -0.64855
C          6.14277         0.56485        -0.53135
C          7.40565         1.32800        -0.72871
C          8.60038         0.56213        -1.21962
C          9.87683         1.32803        -1.47519
C         11.13369         0.60428        -1.21553
C        -10.19804         3.14653        -0.12357
C         -9.48029         4.07275         0.48813
C         -7.34990         2.90674         0.21781
C         -6.39782         3.76400         1.01059
C         -5.09547         3.03273         1.25351
C         -3.78573         3.76397         1.06857
C         -2.60381         2.89484         0.60497
C         -1.30175         3.68109         0.48169
C          0.00797         2.99712         0.73145
C          1.22942         3.66112         0.19242
C          2.51384         2.90517         0.13226
C          3.52839         3.46517        -0.85053
C          4.77586         2.68391        -1.13680
C          6.07436         3.40661        -1.44234
C          7.36257         2.85532        -0.83670
C          8.61887         3.49979        -1.39360
C          9.81567         2.79864        -1.48055
C         -8.94005         5.20309         0.93585
C         -7.76072         5.89824         0.26009
C         -6.44066         5.23885         0.77891
C         -5.13550         5.94150         0.50778
C         -3.80693         5.20820         0.64936
C         -2.59636         5.74781        -0.07226
C         -1.32510         4.97125         0.03646
C         -0.06928         5.69041        -0.33411
C          1.21363         4.98640        -0.10769
C          2.52062         5.74123        -0.24521
C          3.53785         4.96086        -1.05152
C          4.78554         5.66782        -1.48490
C          6.07577         4.90270        -1.62212
C          7.35243         5.64028        -1.34807
C          8.57510         4.90911        -1.50032
C         -7.65795         7.40100         0.54152
C         -6.49352         8.04357         0.24043
C         -5.45549         7.14386        -0.37373
C         -3.50118         8.12339         0.52553
C         -2.56110         7.23370        -0.28317
C         -1.30009         7.97462        -0.62508
C         -0.03503         7.17211        -0.61127
C          1.23983         7.93017        -0.54138
C          2.43948         7.19562        -0.66066
C          3.63941         7.87241        -0.90472
C          4.90279         7.18297        -1.37819
C          6.10116         7.68418        -0.56200
C          7.35903         6.96617        -0.97635
C         -6.24327         9.47615         0.34210
C         -5.04830        10.12233         0.19598
C         -3.72895         9.51841         0.03302
C         -2.59475        10.18833        -0.32114
C         -1.30175         9.46839        -0.57670
C          0.01683        10.17643        -0.30925
C          1.26329         9.34111        -0.54112
C          2.50357        10.00018        -0.61519
C          3.69184         9.28152        -0.82500
C          5.01509         9.91481        -0.84665
C          6.14674         9.19449        -0.70513
C        -10.58051        -0.34313        -1.52693
C        -10.07898        -1.28816        -0.44451
C         -8.87762        -0.62330         0.26035
C         -7.57079        -1.38107         0.45329
C         -6.25236        -0.67367         0.11569
C         -4.91906        -1.37428         0.50969
C         -3.74188        -0.65394         1.12082
C         -2.59812        -1.40335         1.84081
C         -1.23089        -0.66514         1.69216
C          0.05265        -1.42772         1.48499
C          1.26610        -0.69717         0.94675
C          2.50331        -1.47989         0.60985
C          3.87204        -0.77403         0.71925
C          4.98576        -1.59396         0.06320
C          6.08742        -0.92834        -0.62851
C          7.45446        -1.65135        -0.69633
C          8.68568        -0.85723        -0.81077
C          9.91576        -1.46292        -0.62797
C         11.13696        -0.69465        -0.82350
C         -9.77614        -2.68033        -1.03821
C         -8.73499        -3.55238        -0.34805
C         -7.57546        -2.85991         0.28009
C         -6.27395        -3.59769         0.34927
C         -4.91216        -2.89430         0.27141
C         -3.83605        -3.67679         1.02628
C         -2.59990        -2.95719         1.51402
C         -1.27348        -3.71739         1.54795
C          0.03125        -2.95843         1.49827
C          1.35401        -3.69995         1.28426
C          2.50289        -3.01258         0.52636
C          3.86736        -3.64942         0.85623
C          5.08338        -2.95396         0.32504
C          6.33834        -3.65720         0.22359
C          7.52078        -2.99419        -0.11746
C          8.83374        -3.56646         0.08727
C          9.96722        -2.83840        -0.19652
C         -8.67993        -4.85985        -0.71746
C         -7.35716        -5.55374        -1.00748
C         -6.22772        -5.01067        -0.10679
C         -4.87479        -5.62523        -0.30827
C         -3.83194        -5.22157         0.75086
C         -2.42240        -5.70428         0.40112
C         -1.29908        -5.26753         1.34174
C          0.06402        -5.92409         0.94616
C          1.36208        -5.19755         1.20059
C          2.64953        -6.02349         0.95058
C          3.91323        -5.13309         1.04727
C          5.21036        -5.85550         0.78472
C          6.49374        -5.01638         0.91311
C          7.70873        -5.75876         0.36197
C          8.97040        -4.97530         0.64087
C         -7.22302        -7.05206        -0.93162
C         -6.06373        -7.67953        -1.61044
C         -4.78827        -6.95215        -0.96884
C         -3.62385        -7.85803        -0.45097
C         -2.35262        -6.95622        -0.39616
C         -1.08834        -7.73116        -0.67909
C          0.12658        -7.09210        -0.00801
C          1.38460        -7.60428        -0.78742
C          2.67060        -6.75907        -0.39678
C          3.91618        -7.61946        -0.57628
C          5.21189        -7.08032        -0.06471
C          6.45357        -7.66597        -0.70879
C          7.70674        -6.96757        -0.22468
C         -5.91253        -9.18240        -1.57763
C         -4.71587        -9.81245        -1.58431
C         -3.45699        -9.17142        -1.20429
C         -2.28317        -9.85195        -1.08947
C         -1.15595        -9.22181        -0.28099
C          0.21851        -9.83994        -0.41005
C          1.41167        -9.12939        -0.47984
C          2.64688        -9.80463        -0.36503
C          3.91238        -9.16727        -0.62883
C          5.22253        -9.82631        -0.38053
C          6.39468        -9.16461        -0.44162
O          3.10380         5.76817         1.09632
O         -7.51688         3.10817        -0.97510
O          5.13927         7.63978        -2.73273
H          4.49962         7.16811        -3.31111
O          6.97788         0.93068         0.62297
O         -1.87963         1.53412         2.67697
O          6.37826        -7.43234        -2.13411
H          7.00888        -8.03074        -2.58367
O          9.01600         0.80591        -2.58881
O          2.80671        -5.74295        -1.38912
H          2.38697        -6.13202        -2.20767
O         -1.37253         8.76817        -1.86029
O         -2.19656        -5.64444        -1.03741
O          3.94195        -8.28284        -1.82355
O          0.14598        -7.31080         1.40726
O         -2.89528         2.44052        -0.74257
H         -2.93319         3.20933        -1.35086
O          1.56685        -4.51392         2.47260
O          3.12033         2.56940         1.42511
O         -0.06549         6.20525        -1.72051
O         -5.38813         1.45830        -0.54544
O         -1.50871        -9.37080         1.10608
H         -2.44658        -9.02657         1.23196
O         -3.77213         7.83765         1.68064
O         -3.62134        -3.48696         2.42937
O          2.24554        -3.34128        -0.85674
H          2.06358        -2.51728        -1.36163
O          6.06083         3.36628         1.11717
H          6.08388         2.54254         1.67125
O         -4.52386        -3.04955        -1.11976
H         -5.01813        -2.37616        -1.64444
O          6.68514        -4.76344         2.26538
O          7.40195         3.40685         0.56776
O         -6.45461        -4.71939         1.28071
O         -5.95652         3.38562         2.34323
O         -5.18426         7.23018        -1.55986
O         -5.80907         6.03771         1.79488
O         -3.80509        -0.81318        -0.30319
O         -3.48599         4.80784         2.01572
O          3.70925         2.79491        -2.12175
O          5.27811        -7.15760         1.40289
O          3.82064         0.45561        -1.36357
O          0.00734        10.61512         1.09259
O         -4.26793        -5.86741         1.93987
H         -3.54194        -5.83106         2.60541
O         -9.28792        -0.06678         1.55157
O         -2.88896        -1.30618         3.23936
H         -2.11139        -1.66525         3.72466
O          3.99273        -4.22954         2.18444
O        -11.13650        -1.44846         0.53090
H        -10.72122        -1.59214         1.40986
O         -4.45671        -5.78323        -1.70157
O          1.61538        -0.92790        -0.43728
O         -7.72089        -2.21811         1.62094
O          3.72008         5.34065        -2.43614
O         -9.22191        -2.45889        -2.34628
H         -8.79400        -3.28644        -2.65768
O          1.23911        -7.43276        -2.13961
O         -4.31227         0.87201         2.90623
H         -3.56451         0.56138         3.47052
O         -0.55850        -3.40233         2.76676
O         -0.97101        -7.72696        -2.09873
H         -0.96509        -6.79658        -2.41414
O          6.54939        -1.51671        -1.85771
O          6.18710         3.98281        -2.75888
O         -3.89059        -8.21161         0.84780
O         -2.96080         6.32869        -1.35408
H          2.50035         6.25379         1.69713
O         -7.89041         5.71755        -1.15360
H         -7.17929         6.20510        -1.62109
O         -0.33117        -0.95857         2.80547
O         -6.03388        -7.33840        -3.01505
H         -5.17524        -7.62544        -3.39014
O         -1.64609        -5.80167         2.62829
H         -1.04652        -5.38744         3.28948
O          5.89662         7.39789         0.84797
H          5.95232         6.42939         0.99248
O         -7.09755        -5.03137        -2.32744
H         -6.54356        -5.68371        -2.82919
O         10.13971        -5.60595         0.12920
H         10.10224        -5.58495        -0.84868
O         -6.26591        -0.77216        -1.33716
H         -5.63813        -0.08199        -1.66427
O          0.19682         2.72688         2.17331
O         -7.60906         1.65341         2.26990
H         -8.14591         0.90762         2.62766
O        -11.27173         1.34584         0.89663
H        -11.42810         0.36828         0.89410
O         -0.19751         9.38514         1.87401
H         -0.24185         9.74591         2.79309
O          1.76312         0.73478         2.74110
H          1.74632         1.65909         3.07683
O          2.71264        -7.00927         1.97969
H          2.76070        -6.54171         2.84132
O          4.20077        -0.58838         2.10232
H          4.39093        -1.45714         2.51636
H         12.09345        -1.19824        -0.62040
H         12.07801         1.16476        -1.28304
H         10.74116         3.35556        -1.69645
H          9.51606         5.46596        -1.62655
H          8.32747         7.45751        -0.78940
H          7.12421         9.69746        -0.65234
H          5.06071        11.01270        -0.90974
H          2.53711        11.09657        -0.53160
H          0.07625        11.12795        -0.89211
H         -2.63096        11.26440        -0.55848
H         -5.06855        11.22440         0.20648
H         -7.13243        10.10199         0.52270
H         -8.52927         7.95036         0.93207
H         -9.24420         5.58992         1.92471
H        -11.05710         3.52168        -0.71504
H        -10.98275         1.63589        -2.15686
H        -10.92843        -0.78360        -2.47259
H        -10.74661        -3.24529        -1.12978
H         -9.54476        -5.26716        -1.26986
H         -7.50340        -7.49789         0.03859
H         -6.82316        -9.76445        -1.78477
H         -4.69100       -10.90191        -1.74812
H         -2.19706       -10.89108        -1.44544
H          0.27377       -10.94076        -0.35396
H          2.65821       -10.82018         0.06486
H          5.20780       -10.90492        -0.15932
H          7.33632        -9.71100        -0.27748
H          8.66989        -7.40735        -0.53678
H          9.08199        -4.90399         1.75593
H         10.95167        -3.30552        -0.04502
