         261
 CSIRO Nanostructure Databank - Neutral Graphene Oxide Data Set
C        -11.04785         0.85522         0.08305
C         -9.92049         1.61534        -0.58390
C         -8.68844         0.72947        -0.95947
C         -7.34664         1.41386        -1.15088
C         -6.00705         0.62915        -1.12708
C         -4.85099         1.45746        -0.47936
C         -3.64294         0.69072         0.06153
C         -2.56918         1.44614         0.83185
C         -1.36299         0.70615         1.34444
C         -0.04600         1.43869         1.45183
C          1.24176         0.70459         1.28766
C          2.33700         1.30562         0.42667
C          3.63424         0.55614         0.32085
C          4.83414         1.23904        -0.31400
C          6.15665         0.50390        -0.34107
C          7.37386         1.19861        -0.87793
C          8.72843         0.53016        -0.80357
C         10.00438         1.32425        -0.93206
C         11.29219         0.58373        -0.76193
C         -9.55420         2.71452         0.44662
C         -9.25973         3.96478         0.14612
C         -7.27020         2.95217        -1.26305
C         -6.19427         3.75292        -0.52598
C         -4.92573         2.96071        -0.25888
C         -3.74118         3.70730         0.36435
C         -2.51024         2.94580         0.75640
C         -1.31218         3.66005         1.35237
C         -0.00747         2.92700         1.18084
C          1.16005         3.57684         0.50791
C          2.25599         2.74770        -0.14712
C          3.62361         3.46382        -0.04011
C          4.79864         2.71192        -0.61613
C          6.05213         3.47177        -1.00269
C          7.39159         2.69646        -1.27872
C          8.63517         3.43095        -0.76764
C          9.85178         2.78078        -0.74248
C         -9.02199         5.21633        -0.19372
C         -7.73281         5.96257         0.12654
C         -6.38042         5.16376         0.02090
C         -5.26221         5.76822         0.88206
C         -3.93211         5.06778         0.98653
C         -2.64636         5.86512         1.18889
C         -1.31868         5.13650         1.16318
C         -0.29042         5.72647         0.19336
C          1.06841         5.02361         0.08811
C          2.38724         5.72588         0.06600
C          3.67841         4.94562         0.10221
C          4.81538         5.78146        -0.49037
C          6.07926         4.96939        -0.84381
C          7.40911         5.62020        -0.67283
C          8.55419         4.88224        -0.62287
C         -7.51471         7.19173        -0.76934
C         -6.68420         8.19501        -0.37722
C         -5.15300         7.25597         1.00146
C         -4.00075         7.95235         0.95833
C         -2.65237         7.35612         0.99654
C         -1.44981         8.10430         0.46481
C         -0.21853         7.30053         0.19027
C          1.13550         7.88452         0.49415
C          2.44516         7.16407         0.47045
C          3.77187         7.86194         0.57171
C          5.03175         7.06769         0.30656
C          6.31111         7.81272         0.06235
C          7.45075         7.13788        -0.69908
C         -6.10340         9.24757        -1.22190
C         -4.92188         9.94083        -1.15726
C         -3.81209         9.87384        -0.19778
C         -2.50223        10.16454        -0.42676
C         -1.38732         9.71877         0.53710
C         -0.02461        10.05939        -0.01466
C          1.23176         9.80030         0.66303
C          2.49681         9.99592        -0.05213
C          3.76937         9.39297         0.37637
C          5.07051         9.98600        -0.02574
C          6.22462         9.28932        -0.07021
C        -11.04588        -0.44912         0.38108
C         -9.98290        -1.37025        -0.08349
C         -8.77174        -0.78390        -0.76503
C         -7.48507        -1.58756        -0.74279
C         -6.15567        -0.86688        -0.66442
C         -5.13949        -1.37245         0.37554
C         -3.72429        -0.79474         0.26739
C         -2.66262        -1.49027         1.15527
C         -1.32306        -0.76147         0.97977
C         -0.01892        -1.48839         0.89702
C          1.24173        -0.80273         1.32252
C          2.54691        -1.51996         1.32743
C          3.81111        -0.72133         1.10667
C          5.09783        -1.47095         0.98702
C          6.31379        -0.77220         0.44336
C          7.59977        -1.51094         0.34708
C          8.84891        -0.79453        -0.11069
C         10.15160        -1.51984        -0.11097
C         11.33775        -0.76000        -0.60758
C        -10.02912        -2.80177         0.33718
C         -8.91879        -3.56980         0.27146
C         -7.64053        -3.03657        -0.31556
C         -6.41905        -3.65726         0.32765
C         -5.15697        -2.90851         0.59239
C         -3.86718        -3.71887         0.65415
C         -2.57314        -3.00265         0.84641
C         -1.25604        -3.69295         0.51305
C          0.02844        -2.98274         0.79145
C          1.34623        -3.60536         0.42379
C          2.60988        -2.93101         0.82036
C          3.83753        -3.72353         1.18651
C          5.15131        -2.97315         1.22282
C          6.45512        -3.72653         0.99503
C          7.54533        -3.03662         0.12682
C          8.92266        -3.69028         0.20775
C         10.07761        -3.00497         0.02377
C         -8.72650        -4.85644        -0.52881
C         -7.65754        -5.86625        -0.10686
C         -6.37455        -5.15674         0.17313
C         -5.12046        -5.69912        -0.42313
C         -3.82476        -5.02049        -0.11005
C         -2.52407        -5.79991        -0.25197
C         -1.23710        -5.02295        -0.21182
C          0.09228        -5.76134        -0.25665
C          1.34942        -5.09235         0.19300
C          2.48616        -5.91725         0.72766
C          3.80241        -5.23356         1.07210
C          5.10541        -5.97635         0.91812
C          6.42738        -5.23269         0.86028
C          7.59897        -5.90620         0.22423
C          8.94897        -5.20786         0.35450
C         -7.56554        -7.29476        -0.55675
C         -6.36033        -7.89884        -0.79427
C         -5.16331        -7.05649        -1.06599
C         -3.62172        -8.13947         0.48147
C         -2.37744        -7.22076         0.38105
C         -1.19472        -7.99683        -0.18044
C          0.07050        -7.25959        -0.43797
C          1.41071        -7.96919        -0.47415
C          2.47538        -7.38012         0.42660
C          3.75232        -7.96663        -0.14524
C          5.05909        -7.39235         0.37872
C          6.32094        -8.03099        -0.11164
C          7.54009        -7.18885        -0.20813
C         -6.13345        -9.33842        -0.92342
C         -4.93263        -9.96670        -0.76608
C         -3.64814        -9.41187        -0.31310
C         -2.46182       -10.06727        -0.46999
C         -1.20528        -9.48316         0.16124
C          0.12037       -10.14338        -0.16080
C          1.30160        -9.47367        -0.28641
C          2.58810       -10.15117        -0.41372
C          3.77275        -9.46433        -0.35049
C          5.03337       -10.02197        -0.81965
C          6.18600        -9.30596        -0.85813
O          7.74245         2.83797        -2.61214
O          0.84084         1.18856         2.59019
O          9.70199        -0.76579         1.08680
O         -3.21534        -3.76439         1.94299
O         -2.63058         3.56709        -0.55972
O         -0.81485        -7.67723        -1.53040
O          1.67491         5.41367        -1.17732
O          6.03206         7.15696         1.34460
O         -3.19535        -0.27073        -0.95812
O          3.51265        -7.44827        -1.53112
O         -0.65024        -0.92869        -0.30009
O         -7.09121        -5.80568         1.25670
O         -1.01041         7.79450        -0.90654
O          1.08830         3.52667         1.94559
O         -6.51642        -1.62318        -1.84167
O         -4.29508        -7.39891        -1.85588
O          3.79982         8.77896         1.69926
O          2.18590        -2.95303        -0.57832
O         -8.17465         0.98350        -2.28596
O         -4.11676         9.34199         1.06819
O         -4.44479         2.39629        -1.50605
O          4.71751        -0.71537         2.21362
O         -5.88644         4.96204        -1.31789
O         -1.17710         4.55304         2.49450
O          1.05245        -5.25213        -1.23505
O         -6.08381        -3.23707         1.67517
O          4.44364         1.74250        -1.62957
O          1.60917         7.41069         1.70062
O         -4.50450        -4.76567        -1.37213
O         -4.88001         5.04198         2.09604
O          4.44310        -5.87513         2.20489
O          7.08017        -3.19268        -1.18258
O          3.93072         4.09627         1.24731
O          9.33905         0.69011        -2.10214
O         -2.43514         1.06693         2.24515
O          4.43771        -3.30214         2.43650
O          6.85607        -4.54783         2.10173
O          5.83111         4.35263        -2.14796
O          5.80537        -8.25800         1.27038
O          7.24733        -0.85128         1.58682
O          1.82196        -1.32060         2.56192
O         -1.90928        -5.30397        -1.46994
O          6.55597         0.35007        -1.73757
O          2.13951        -6.94963         1.74271
O         -7.95972         3.50201        -2.09754
O         -7.96643        -3.96685        -1.47723
O          2.57403         0.36022        -0.66394
O         -4.47318        -7.85750         1.31320
O         -2.54836         6.76158         2.33941
O         -6.27932         8.12274         0.98205
O         -9.83908        -1.34120        -1.57227
O         -0.56792        -3.79509         1.82983
O          2.06896        -7.76256        -1.79773
O          4.28328         6.30079        -1.73287
H          4.48192         5.63795        -2.43883
O          7.34996         7.56693        -2.06215
H          7.87925         6.96635        -2.62651
O          9.45907        -5.52822         1.65827
H          8.78073        -5.24514         2.31382
O         -1.39793        -9.61298         1.59624
H         -0.65641        -9.16752         2.05819
O        -10.42885         2.20965        -1.76620
H         -9.65915         2.50587        -2.30995
O         -2.04974        -6.91605         1.75908
H         -2.87767        -6.99268         2.28933
O         -7.93820         6.27926         1.50851
H         -7.52091         7.14838         1.71918
O         -0.92604         5.39340        -1.05123
H         -0.29039         5.54846        -1.78489
O          1.24564         9.93370         2.02660
H          2.13626         9.66984         2.36072
O         -5.65205        -0.75669         1.58852
H         -5.01567        -0.96385         2.31827
O         -3.09734        -1.34268         2.51353
H         -3.11172        -2.23840         2.93196
O         -1.60584        10.16734         1.85160
H         -0.75403        10.15841         2.34034
O          1.89643         2.66884        -1.52331
H          2.46391         1.97783        -1.94621
O         -5.59257         0.55393        -2.49216
H         -6.27703         0.04824        -2.98483
H         12.30705        -1.28026        -0.63913
H         12.21844         1.13925        -0.97513
H         10.74813         3.35304        -0.45285
H          9.51177         5.41251        -0.48489
H          8.43520         7.48617        -0.26598
H          7.14560         9.80832        -0.37667
H          5.07990        11.06108        -0.25807
H          2.40992        10.15085        -1.14061
H          0.04436        10.03463        -1.11479
H         -2.19509        10.55938        -1.40629
H         -4.71691        10.58888        -2.02610
H         -6.68857         9.42392        -2.14057
H         -7.86483         7.13262        -1.80998
H         -9.89137         5.86897        -0.39135
H         -9.76762         2.47714         1.50591
H        -11.90782         1.47318         0.38133
H        -11.90279        -0.89649         0.90728
H        -11.02670        -3.25658         0.44493
H         -9.63161        -5.30572        -0.99589
H         -8.47658        -7.91077        -0.46764
H         -7.00832        -9.96309        -1.16550
H         -4.91520       -11.05203        -0.95987
H         -2.41428       -11.02701        -1.00793
H          0.14897       -11.24264        -0.08836
H          2.59398       -11.23558        -0.60242
H          5.00237       -11.02662        -1.26737
H          7.08498        -9.72971        -1.32936
H          8.44618        -7.65915        -0.62171
H          9.66304        -5.64310        -0.39087
H         11.02872        -3.56140        -0.00479
