         404
 CSIRO Nanostructure Databank - Neutral Graphene Oxide Data Set
C          1.29784         1.98081        -0.67865
C          1.25594         3.38719        -0.64643
C          2.49926         1.31903        -0.51808
C          2.41921         4.13938        -0.46023
C          1.19514         6.39172        -0.74792
C          1.22915         7.74808        -0.81260
C          2.34882         5.61164        -0.28353
C          2.43956         8.51694        -0.60882
C          1.26407        10.69809        -0.98770
C          1.28829        12.07458        -1.11171
C          2.44540         9.95697        -0.73052
C          2.49280        12.80178        -0.93685
C          1.32963        15.06205        -0.96997
C          1.32185        16.41511        -1.10666
C          2.53376        14.26859        -1.12040
C          2.50103        17.13928        -1.59245
C          2.64172        18.59340        -1.40279
C          3.71062         2.05067        -0.35950
C          3.67894         3.48512        -0.33986
C          4.93678         1.36835        -0.22258
C          4.91983         4.21923        -0.27912
C          3.67150         6.38196        -0.17054
C          3.65022         7.83027        -0.43045
C          4.93638         5.63709        -0.30045
C          4.89828         8.52628        -0.44851
C          3.67569        10.67448        -0.56579
C          3.67008        12.10265        -0.64164
C          4.89344         9.93662        -0.42547
C          4.89546        12.95010        -0.33271
C          3.74095        14.89234        -1.35299
C          3.80593        16.32056        -1.68474
C          5.01843        14.08264        -1.36196
C          5.07678        17.04762        -1.54590
C          3.84795        19.20339        -1.50140
C          5.09911        18.46372        -1.58162
C          6.16287         2.06495        -0.16552
C          6.16411         3.50541        -0.25606
C          7.38071         1.35987        -0.05064
C          7.40023         4.19827        -0.32386
C          6.15377         6.36574        -0.45662
C          6.12922         7.77746        -0.51589
C          7.41908         5.64045        -0.49610
C          7.36731         8.51953        -0.81149
C          6.17031        10.64434        -0.21243
C          6.18143        12.15654        -0.22144
C          7.43566         9.95076        -0.49214
C          7.45004        12.81258        -0.54546
C          6.27427        14.90436        -1.15761
C          6.28809        16.32031        -1.34747
C          7.47955        14.20432        -0.86641
C          7.52141        17.03017        -1.36040
C          6.32963        19.14766        -1.53227
C          7.56054        18.44881        -1.45282
C          8.61776         2.03627        -0.06026
C          8.62284         3.46777        -0.22762
C          9.84586         1.34052         0.04611
C          9.87369         4.13121        -0.32784
C          8.63119         6.30087        -0.69051
C          8.68671         7.75887        -0.92733
C          9.88189         5.53759        -0.73506
C          9.93252         8.51821        -0.66686
C          8.64343        10.62600        -0.43237
C          8.64914        12.08436        -0.41986
C          9.91161         9.89549        -0.46997
C          9.86928        12.79741        -0.33516
C          8.73786        14.86863        -0.90388
C          8.77237        16.27068        -1.32991
C          9.92612        14.19564        -0.53975
C         10.08566        17.03048        -1.21002
C          8.80867        19.15243        -1.34226
C         10.03130        18.50630        -1.12970
C         11.08408         2.01758         0.04152
C         11.09135         3.44749        -0.15052
C         12.30970         1.32021         0.19976
C         12.33412         4.17180        -0.01712
C         11.24243         6.29970        -0.66836
C         11.22240         7.80266        -0.68663
C         12.36824         5.58726        -0.09517
C         12.46627         8.54895        -0.25930
C         11.12687        10.61043        -0.10940
C         11.04000        12.05854         0.15356
C         12.34456         9.97569         0.07366
C         12.30843        12.83177         0.41712
C         11.18494        14.92517        -0.38343
C         11.24675        16.32239        -0.64307
C         12.34727        14.26516         0.07116
C         12.42953        17.05027        -0.41931
C         11.24707        19.18586        -0.88256
C         12.45257        18.49214        -0.60876
C         13.53741         2.00914         0.30501
C         13.51407         3.43166         0.28532
C         14.79469         1.29930         0.38612
C         14.79282         4.15105         0.39396
C         13.48812         6.34291         0.58851
C         13.62549         7.80849         0.26058
C         14.82123         5.63945         0.43016
C         14.78218         8.50170         0.60727
C         13.56338        10.67716         0.43346
C         13.57339        12.08848         0.49986
C         14.78136         9.95497         0.60517
C         14.77102        12.80971         0.72190
C         13.57925        14.95491         0.19805
C         13.61982        16.36291        -0.03726
C         14.77552        14.26137         0.60126
C         14.85065        17.07106         0.06637
C         13.68041        19.17221        -0.47821
C         14.88632        18.48984        -0.18217
C         16.01369         1.94106         0.60446
C         15.96515         3.39509         0.90545
C         17.26763         1.29204         0.71947
C         17.19609         4.15727         1.24028
C         16.03385         6.35857         0.91895
C         16.00749         7.80402         0.94997
C         17.17125         5.64573         1.22039
C         17.20164         8.52309         1.18797
C         15.97640        10.66638         0.90134
C         15.95596        12.08454         0.98418
C         17.20387         9.95845         1.17131
C         17.16504        12.79865         1.40848
C         15.97228        14.98116         0.72659
C         16.03810        16.37495         0.41338
C         17.18041        14.32588         1.24824
C         17.29024        17.06271         0.45605
C         16.12932        19.15922        -0.11701
C         17.32664        18.47022         0.16825
C         18.47878         1.98659         0.95448
C         18.52998         3.50705         0.92476
C         19.69108         1.31787         1.10478
C         19.66368         4.04882         1.82161
C         18.39260         6.35559         1.62479
C         18.43631         7.80973         1.41697
C         19.69903         5.58875         1.84393
C         19.64653         8.46375         1.61512
C         18.40112        10.67245         1.44362
C         18.44601        12.08251         1.45625
C         19.61811         9.92547         1.79857
C         19.67383        12.82032         1.50954
C         18.48448        14.97905         1.07847
C         18.50329        16.35602         0.72750
C         19.68163        14.25210         1.28276
C         19.76098        17.03737         0.65201
C         18.57907        19.14842         0.18115
C         19.78185        18.47147         0.40310
C         20.94751         2.01859         1.20538
C         20.96369         3.40162         1.41415
C         22.17604         1.29668         1.05443
C         22.21447         4.16191         1.40602
C         20.94690         6.33936         1.57912
C         20.90494         7.75755         1.61423
C         22.16665         5.65174         1.30595
C         22.13368         8.50582         1.50484
C         20.92475        10.68673         1.88453
C         20.91330        12.13687         1.61125
C         22.16506         9.92511         1.63557
C         22.15024        12.82635         1.54026
C         20.93508        14.93795         1.16514
C         20.94971        16.32896         0.85752
C         22.16516        14.22983         1.34889
C         22.26665        16.99827         0.54530
C         21.02008        19.17023         0.47623
C         22.23680        18.50655         0.68113
C         23.40739         1.91182         0.85259
C         23.47584         3.41552         0.97850
C         24.58953         1.10316         0.82397
C         24.56475         4.26084         0.41253
C         23.34431         6.37657         1.05192
C         23.33323         7.81020         1.16012
C         24.58485         5.70618         0.65460
C         24.53115         8.55308         0.98227
C         23.37623        10.63625         1.57087
C         23.40301        12.09563         1.65504
C         24.56882         9.91211         1.28655
C         24.60648        12.79238         1.72863
C         23.40991        14.96587         1.45092
C         23.41983        16.34033         1.25118
C         24.64584        14.24290         1.71177
C         24.58486        17.14403         1.59313
C         23.44197        19.20986         0.82914
C         24.65985        18.56063         1.16936
C         25.74951         1.56055         0.15641
C         25.56388         3.71699        -0.34325
C         27.10229         1.35747         0.36845
C         26.87118         4.34211        -0.59094
C         25.71184         6.43553         0.32786
C         25.70104         7.93784         0.26410
C         26.91569         5.80930        -0.26478
C         27.05661         8.57720         0.52222
C         25.87364        10.56706         1.48129
C         25.88412        12.04832         1.80963
C         27.10764         9.94533         0.96061
C         27.15788        12.76280         1.65032
C         25.85800        14.92589         1.81013
C         25.90649        16.38993         1.88602
C         27.14257        14.20562         1.91849
C         27.16211        17.12392         1.62262
C         25.88056        19.22195         1.21129
C         27.13057        18.53534         1.40399
C         28.18554         2.17160        -0.17594
C         28.11322         3.54170        -0.52889
C         29.45372         1.50300        -0.17964
C         29.35452         4.32542        -0.79784
C         28.22962         6.47065        -0.11530
C         28.21863         7.87627         0.17768
C         29.40137         5.78838        -0.45444
C         29.48304         8.59856         0.00455
C         28.29858        10.67356         1.01443
C         28.34936        12.08285         1.39067
C         29.49972        10.05365         0.43951
C         29.58949        12.82892         1.28108
C         28.43843        14.97471         1.80746
C         28.39702        16.44133         1.57656
C         29.65351        14.22934         1.40577
C         29.59793        17.13789         1.38972
C         28.34978        19.23492         1.28417
C         29.58981        18.56003         1.30121
C         30.66454         2.12158        -0.48299
C         30.67518         3.56224        -0.80664
C         31.89820         1.43408        -0.44853
C         31.95454         4.27556        -0.64403
C         30.67541         6.47780        -0.42188
C         30.74501         7.84136        -0.13677
C         31.92982         5.74069        -0.74392
C         31.99469         8.58973        -0.08230
C         30.82280        10.62952         0.76703
C         30.85653        12.09374         1.12420
C         32.00701         9.94190         0.22600
C         32.08965        12.84271         0.83252
C         30.86381        14.95381         1.21820
C         30.92690        16.43503         1.53914
C         32.06887        14.26673         0.92302
C         32.05157        17.17924         0.83864
C         30.83533        19.26297         1.23668
C         32.05843        18.62244         0.95196
C         33.13439         2.11088        -0.56099
C         33.14476         3.56942        -0.58946
C         34.35365         1.41022        -0.61352
C         34.42092         4.25330        -0.45685
C         33.27031         6.45589        -0.57344
C         33.27839         7.88821        -0.19796
C         34.45988         5.64192        -0.30868
C         34.46027         8.51159         0.10701
C         33.27211        10.72697         0.04304
C         33.26445        12.15831         0.51924
C         34.48959         9.93802         0.46735
C         34.48811        12.86885         0.41601
C         33.26140        14.98711         0.59649
C         33.16885        16.43029         0.40900
C         34.45758        14.28686         0.34623
C         34.23884        17.04904        -0.26588
C         33.27393        19.41689         0.95145
C         34.40671        19.09558         0.19346
C         35.60555         2.08104        -0.59516
C         35.62916         3.48356        -0.39433
C         36.82018         1.37099        -0.90775
C         36.91427         4.16629        -0.21892
C         35.71890         6.31138         0.08468
C         35.74733         7.79487         0.27580
C         36.98136         5.63138        -0.23075
C         37.02187         8.51988         0.01231
C         35.81024        10.64764         0.50675
C         35.76911        12.14611         0.47722
C         37.03769         9.92626         0.06940
C         37.03569        12.86399        -0.01871
C         35.70657        15.01622        -0.01173
C         35.58041        16.51327        -0.32961
C         36.81408        14.19705        -0.55758
C         36.64713        17.41134        -0.88171
C         35.77221        19.43555         0.33310
C         36.84658        18.72057        -0.30628
C         38.03564         2.01334        -1.06123
C         38.18950         3.40397        -0.59738
C         39.19502         1.38846        -1.64127
C         39.34139         4.20786        -1.03279
C         38.16497         6.33553        -0.44342
C         38.18098         7.78908        -0.38313
C         39.35797         5.61934        -0.87685
C         39.35920         8.50396        -0.77989
C         38.18161        10.65141        -0.40166
C         38.15004        12.06757        -0.55369
C         39.34281         9.93566        -0.83947
C         39.17570        12.74278        -1.27873
C         37.66753        14.60473        -1.57136
C         37.66789        16.83824        -1.61922
C         38.94423        14.06289        -1.77019
C         39.03947        17.20279        -1.53414
C         38.16916        19.21533        -0.35564
C         39.26302        18.45130        -0.85560
C         40.33744         2.10235        -1.87942
C         40.42666         3.52202        -1.62849
C         41.58481         4.25730        -1.97489
C         40.52251         6.34580        -1.26278
C         40.52975         7.79208        -1.19517
C         41.63291         5.62487        -1.77843
C         41.67021         8.54047        -1.58801
C         40.47431        10.65878        -1.35578
C         40.38227        12.06149        -1.61197
C         41.64651         9.91616        -1.67478
C         41.40451        12.84023        -2.28280
C         39.95119        14.90506        -2.53835
C         40.12895        16.32614        -1.89127
C         41.24283        14.13245        -2.66911
C         41.41257        16.79116        -1.62594
C         40.60743        18.88647        -0.67914
C         41.64876        18.06724        -1.06197
O         37.80185         3.57995         0.79745
O         10.71720         5.76224        -1.91780
O         31.00371        11.02889         2.16364
O          3.02597        16.67663        -2.87879
O         34.06564        18.24227        -0.92925
O         11.39427        12.47852         1.52591
O         25.08157        16.95049         2.95457
O          7.95829         8.19152        -2.12448
O         18.92210         6.05480         2.98732
O         16.96978        13.69699         2.55471
O          9.64887        16.50073        -2.50428
O         37.29995        15.70404        -2.35969
O         32.66817         6.25012        -1.90666
O         27.92823        14.58792         3.12694
O         23.23586         3.73965         2.39161
O         25.42036         2.45259        -0.88906
O         15.06918         4.95510        -0.83443
O         26.77121         5.34881        -1.67518
O         20.19570        10.31878         3.10073
O          6.22378        11.42242         1.05206
O         36.04979        16.01242         0.99922
O         35.72494         6.90879         1.45280
O          2.87653         6.02235         1.01858
O         25.97272        11.03313         2.87486
O         12.16840         8.30168        -1.69585
O         35.14508        10.17147         1.73695
O         30.00581         3.95485        -2.06056
O         16.35530         3.62805         2.31729
O         36.73321        12.72363         1.40641
O         29.37987         9.71370        -0.97679
O          4.67696        13.58032         0.95124
H          4.91278        12.91426         1.63601
O         25.43391         8.25209        -1.15608
H         26.00334         7.66560        -1.70229
O         33.46422        10.84182        -1.42025
H         32.58490        10.95336        -1.84108
O         22.49795        16.75375        -0.89542
H         21.76009        17.18012        -1.38178
O          5.14338        13.43922        -2.66326
H          5.09205        14.13423        -3.35314
O         31.25629        16.52606         2.97310
H         30.55300        16.05087         3.46685
O         13.16940         6.28752         2.02601
H         13.90893         6.70635         2.51734
O         18.86545         3.92434        -0.42638
H         18.21273         3.53613        -1.04669
O         39.47195        15.11999        -3.89055
H         38.56120        15.48821        -3.81782
O         19.42817         3.58326         3.16423
H         18.98342         4.31695         3.65281
H          0.36539         1.41485        -0.80979
H          0.28333         3.88990        -0.73521
H          2.53746         0.22043        -0.52452
H          0.28365         5.86279        -1.06097
H          0.31801         8.27384        -1.12867
H          0.30527        10.17865        -1.11535
H          0.35853        12.60689        -1.35535
H          0.41696        14.55839        -0.62026
H          0.43048        16.99518        -0.82401
H          1.73560        19.18354        -1.19840
H          4.94154         0.26870        -0.19560
H          3.91506        20.29740        -1.40353
H          7.36154         0.26357         0.03521
H          6.33484        20.24760        -1.54330
H          9.83072         0.24699         0.16495
H          8.78234        20.25260        -1.34264
H         12.29674         0.22200         0.25979
H         11.26247        20.28561        -0.91839
H         14.77668         0.20622         0.26065
H         13.70774        20.26183        -0.62867
H         17.30356         0.19410         0.64443
H         16.16847        20.24032        -0.31708
H         19.71073         0.21834         1.05750
H         18.59751        20.23333        -0.00066
H         22.12544         0.19843         1.01595
H         21.00687        20.27048         0.44486
H         24.56956         0.12340         1.32455
H         23.44230        20.30433         0.70807
H         27.40811         0.54374         1.04312
H         25.91565        20.29392         0.96469
H         29.46783         0.43654         0.09032
H         28.33213        20.32821         1.16398
H         31.89609         0.34308        -0.30527
H         30.81884        20.35986         1.31903
H         34.33692         0.31234        -0.68380
H         33.29885        20.28899         1.62142
H         36.73748         0.30782        -1.18075
H         36.03092        20.26772         1.00435
H         39.14330         0.32163        -1.90358
H         38.38555        20.19969         0.08609
H         41.21119         1.60370        -2.32379
H         42.44724         3.73309        -2.41068
H         42.54855         6.15796        -2.06525
H         42.59895         8.02214        -1.85967
H         42.54909        10.44181        -2.01407
H         42.36424        12.35183        -2.50895
H         42.05565        14.60916        -3.23773
H         42.28218        16.15596        -1.84527
H         40.80490        19.85597        -0.20010
H         42.68711        18.38985        -0.90095
