         621
 CSIRO Nanostructure Databank - Neutral Graphene Oxide Data Set
C          6.22026        31.68851         1.21754
C          6.31803        33.03624         1.23023
C          8.30935        27.29143        -0.14214
C          8.20663        28.73814        -0.10954
C          7.20510        29.41359         0.55749
C          8.67911        31.52523         0.53665
C          7.38523        30.83263         0.91151
C          8.68416        32.99844         0.37288
C          7.50586        33.75840         0.78518
C          8.54914        35.87155         0.02024
C          7.46461        35.12666         0.66668
C          8.66496        37.33943         0.16140
C         10.68604        23.03177         0.44729
C         10.65364        24.44930         0.46506
C          9.51191        25.18097         0.14590
C         10.83138        27.27752        -0.02947
C          9.51784        26.60589        -0.03409
C         11.10839        28.38288        -0.77025
C          9.30480        29.50918        -0.66094
C         10.98160        31.37113        -0.53609
C          9.67400        30.76318        -0.26261
C         10.88054        32.83561        -0.90294
C          9.78976        33.60785        -0.15783
C         11.07239        35.76354        -0.41347
C          9.75527        35.06270        -0.39815
C         11.08814        37.24583        -0.32284
C          9.82246        38.01626        -0.15304
C         11.05796        40.14752        -0.51569
C          9.89736        39.44579        -0.18043
C         11.11366        41.55854        -0.46217
C         13.15416        18.78896         0.45085
C         13.11231        20.18483         0.38153
C         11.91543        20.90499         0.54343
C         13.16167        23.04805         0.65604
C         11.89293        22.32217         0.53500
C         13.16185        24.43313         0.92262
C         11.88398        25.15636         0.89416
C         13.28281        27.30597         0.62264
C         11.95749        26.65357         0.68872
C         13.41699        28.60637         0.13069
C         12.36539        29.19938        -0.76611
C         13.47059        31.43767        -0.51962
C         12.18720        30.70556        -0.55937
C         13.49248        32.80241        -0.75665
C         12.23790        33.55382        -1.00708
C         13.59590        35.76826        -0.71234
C         12.29676        35.05314        -0.90387
C         13.59245        37.21429        -0.79543
C         12.29462        37.91195        -0.89052
C         13.56741        40.09237        -0.97985
C         12.26925        39.40894        -0.96596
C         13.50445        41.54413        -1.17124
C         12.27926        42.28199        -0.78879
C         13.54307        44.41486        -0.83182
C         12.32696        43.68117        -0.73175
C         13.54458        45.82782        -0.73367
C         15.53672        14.46595         0.18851
C         15.51802        15.84581         0.22101
C         14.32993        16.62897         0.36372
C         15.61802        18.73254         0.13130
C         14.34785        18.02679         0.29277
C         15.62028        20.20911        -0.06663
C         14.30460        20.97544        -0.11586
C         15.59695        23.03644         0.77221
C         14.38363        22.35937         0.50946
C         15.57928        24.39812         1.16666
C         14.37260        25.13642         1.15073
C         15.63598        27.29516         1.26708
C         14.42306        26.59802         1.11314
C         15.73072        28.68322         0.91841
C         14.61510        29.34189         0.31206
C         15.86128        31.45194         0.21971
C         14.67831        30.73978        -0.05352
C         16.00362        32.85443        -0.23163
C         14.75825        33.56826        -0.76162
C         16.11045        35.75179        -0.76683
C         14.76458        35.05175        -0.70723
C         16.03646        37.26648        -0.61428
C         14.78726        37.94640        -0.82736
C         16.03070        40.13328        -0.83686
C         14.77217        39.40220        -0.91987
C         16.06188        41.54188        -0.92280
C         14.82880        42.29420        -1.18861
C         16.02676        44.41635        -0.87184
C         14.79520        43.73075        -0.92526
C         16.00730        45.86605        -0.90831
C         14.73483        46.57312        -0.80924
C         15.85998        48.77027        -0.90378
C         14.69562        47.98799        -0.74749
C         15.87817        50.16935        -0.83394
C         18.34374        10.37272         0.47596
C         18.16171        11.68889        -0.03503
C         16.92283        12.31455         0.00497
C         17.93242        14.51998        -0.76931
C         16.71735        13.73063        -0.32567
C         18.07541        15.90554        -0.22696
C         16.81172        16.57868         0.23210
C         18.11897        18.71384         0.34027
C         16.79971        18.04737         0.19504
C         18.13844        20.19616         0.51342
C         16.88845        20.95268         0.20615
C         18.08109        22.98260         0.92368
C         16.87958        22.36995         0.62871
C         18.11148        24.31158         1.57883
C         16.80051        25.04366         1.68762
C         18.10662        27.28093         1.97617
C         16.79516        26.56260         1.82406
C         18.06788        28.77874         1.83095
C         16.91722        29.43027         1.17022
C         18.17505        31.56034         1.15952
C         16.97880        30.80988         0.86759
C         18.11055        33.04232         1.16662
C         17.08561        33.71365         0.32775
C         18.21984        35.88687         0.72031
C         17.11490        35.06503         0.15054
C         18.31457        37.34594         0.34545
C         17.19103        38.00184        -0.37042
C         18.45756        40.15835        -0.35963
C         17.23397        39.43489        -0.52070
C         18.49456        41.56328        -0.48351
C         17.27157        42.27433        -0.74894
C         18.55354        44.41794        -1.08870
C         17.24906        43.70076        -0.84507
C         18.48709        45.93514        -0.96251
C         17.19097        46.57155        -1.04882
C         18.38419        48.79978        -1.19595
C         17.10815        48.03325        -1.20948
C         18.33327        50.25105        -1.00311
C         17.09149        50.93700        -0.92903
C         18.34718        53.05140        -1.06298
C         17.12829        52.35301        -0.93135
C         18.37984        54.49519        -1.14924
C         21.14539         6.45157         1.53305
C         21.04204         7.79999         1.12677
C         19.77407         8.46654         1.08113
C         20.81910        10.57546         0.28217
C         19.61218         9.77029         0.59542
C         20.69095        11.81869        -0.51039
C         19.32367        12.35232        -0.69043
C         20.44566        14.61029        -1.37566
C         19.20335        13.79893        -1.10555
C         20.46270        16.03376        -0.99706
C         19.31340        16.68892        -0.51911
C         20.45741        18.90271        -0.61097
C         19.33699        18.04952        -0.14921
C         20.57176        20.30651        -0.12487
C         19.38723        20.96956         0.34118
C         20.58705        23.07675         0.70465
C         19.35593        22.33083         0.65885
C         20.64698        24.43347         1.03277
C         19.43309        25.05964         1.61913
C         20.65258        27.31403         1.49296
C         19.43666        26.54600         1.84495
C         20.70859        28.73751         2.03661
C         19.38066        29.50657         1.89601
C         20.60458        31.63183         1.66157
C         19.38916        30.92854         1.48226
C         20.57514        33.07280         1.94208
C         19.32429        33.82077         1.60359
C         20.63255        35.93630         1.33970
C         19.46906        35.22465         1.16023
C         20.69624        37.34623         1.00609
C         19.62064        38.00975         0.44780
C         20.89406        40.23787         0.41278
C         19.70214        39.42231        -0.01396
C         20.85166        41.71663         0.34829
C         19.70755        42.33892        -0.20575
C         20.83646        44.49838        -0.02139
C         19.71424        43.74828        -0.38809
C         20.75034        46.00854         0.03661
C         19.66762        46.64745        -0.84202
C         20.76043        48.90086        -0.19623
C         19.72382        48.14071        -1.00486
C         20.78452        50.04212        -1.20663
C         19.56115        50.91957        -1.10180
C         20.82948        53.03310        -1.43234
C         19.57030        52.31680        -1.14748
C         20.85752        54.49835        -1.16271
C         19.55900        55.22205        -1.23376
C         20.82614        57.35286        -1.27574
C         19.61839        56.64442        -1.17681
C         20.88820        58.70608        -0.89448
C         23.73820         3.76832         1.89660
C         22.50643         4.41859         1.93578
C         23.55187         6.43915         1.01764
C         22.38517         5.76821         1.50385
C         23.45715         7.79181         0.57663
C         22.22038         8.46920         0.67934
C         23.29059        10.46822        -0.42501
C         22.17135         9.89159         0.33331
C         23.09371        11.74207        -1.11220
C         21.80003        12.46568        -0.99870
C         23.04054        14.65966        -1.54747
C         21.76644        13.86577        -1.50251
C         22.97493        16.04329        -1.47818
C         21.79024        16.73404        -0.83408
C         22.93855        19.01963        -1.30215
C         21.67754        18.21719        -1.15939
C         22.99014        20.40990        -0.72644
C         21.78468        20.96945        -0.07596
C         23.14059        23.10432         0.47925
C         21.83743        22.31863         0.52033
C         23.06650        24.57626         0.53105
C         21.86310        25.20111         0.91412
C         23.07810        27.36561         1.04550
C         21.84345        26.64730         1.13764
C         23.11177        28.87320         1.04367
C         21.86321        29.55003         1.51892
C         23.09662        31.70886         1.74497
C         21.85882        30.94287         1.68335
C         23.13411        33.10096         1.87589
C         21.85965        33.83041         2.12072
C         23.14946        36.00076         1.83289
C         21.80877        35.36144         2.14036
C         23.14656        37.41990         1.81714
C         21.85196        38.11840         1.55833
C         23.08663        40.39393         1.72882
C         21.85741        39.60799         1.36759
C         23.18110        41.82216         1.30909
C         21.98858        42.47161         0.74322
C         23.12076        44.69699         0.99670
C         21.96231        43.87550         0.56485
C         23.27064        46.06945         0.48807
C         22.09401        46.69811        -0.21717
C         23.31522        48.85606        -0.12139
C         22.03123        48.18460         0.06271
C         23.33236        50.17010        -0.78224
C         22.10689        50.77702        -1.38734
C         23.39915        53.04677        -1.38698
C         22.11911        52.28472        -1.56717
C         23.41378        54.45721        -1.53639
C         22.14334        55.22025        -1.36474
C         23.35861        57.41238        -1.75303
C         22.03947        56.64455        -1.87172
C         23.36569        58.83612        -1.25727
C         22.09208        59.43443        -0.78165
C         23.36356        61.35100         0.06909
C         22.13366        60.69791        -0.18227
C         24.88313         4.42257         1.43694
C         25.95884         6.46840         0.53151
C         24.81169         5.76702         0.99015
C         25.87263         7.79443         0.08375
C         24.61938         8.47100         0.08162
C         25.70892        10.48165        -0.94643
C         24.51772         9.80172        -0.45882
C         25.64107        11.79687        -1.39557
C         24.34984        12.47538        -1.61835
C         25.47964        14.67966        -1.84430
C         24.30357        13.96367        -1.73055
C         25.44433        16.10914        -2.14964
C         24.11194        16.87203        -1.90736
C         25.38445        19.05839        -1.73479
C         24.21830        18.32812        -1.58570
C         25.46104        20.48040        -1.38031
C         24.33912        21.03484        -0.55845
C         25.39146        23.36369        -0.73673
C         24.38318        22.44913        -0.07024
C         25.50222        24.68923        -0.00989
C         24.29431        25.31075         0.41409
C         25.57233        27.34213         0.97688
C         24.30383        26.69238         0.79803
C         25.59825        28.65698         1.67624
C         24.31855        29.44345         1.77273
C         25.62181        31.67526         2.00092
C         24.34437        30.95048         1.95111
C         25.62166        33.08170         1.92291
C         24.37641        33.81553         1.89839
C         25.60182        35.99174         1.87749
C         24.36207        35.26585         1.88729
C         25.59716        37.42802         1.95337
C         24.34823        38.13950         1.96167
C         25.60600        40.37347         2.30455
C         24.31828        39.62128         2.12259
C         25.56399        41.91227         2.23523
C         24.34818        42.50545         1.53260
C         25.68024        44.69890         1.29679
C         24.38668        43.98723         1.44335
C         25.69840        46.07881         0.95627
C         24.45791        46.75686         0.58035
C         25.75588        48.79861        -0.04244
C         24.51631        48.15896         0.12691
C         25.78868        50.25955        -0.26138
C         24.52969        51.01360        -0.53718
C         25.83977        53.08249        -1.01343
C         24.59480        52.38340        -1.07809
C         25.85901        54.48681        -1.26843
C         24.63955        55.16507        -1.51625
C         25.94658        57.38505        -1.40216
C         24.65139        56.62985        -1.75877
C         25.83571        58.77094        -0.92345
C         24.64230        59.43816        -0.78988
C         24.57489        60.74463        -0.19464
C         27.04212         8.50328        -0.37558
C         28.26248        10.42101        -1.35343
C         26.98308         9.78553        -0.84903
C         28.18503        11.92290        -1.46253
C         26.87364        12.52584        -1.74929
C         28.03235        14.83879        -1.64468
C         26.81543        14.03421        -1.90663
C         27.86500        16.27551        -1.66544
C         26.66783        16.89312        -2.01624
C         27.88286        19.13776        -2.32107
C         26.56631        18.35280        -2.42121
C         27.84685        20.61083        -2.04426
C         26.60809        21.26063        -1.53121
C         27.87054        23.36442        -0.96114
C         26.68956        22.64643        -1.04357
C         27.94702        24.71278        -0.38179
C         26.73248        25.35551         0.11454
C         28.08082        27.26638         1.07210
C         26.76624        26.66728         0.70619
C         28.18411        28.69694         1.58315
C         26.88156        29.38733         1.92417
C         28.18350        31.65387         1.92710
C         26.87253        30.89095         2.14209
C         28.08486        33.12093         1.77942
C         26.88494        33.81723         1.86484
C         28.04153        36.02520         1.74875
C         26.84916        35.28553         1.83592
C         28.06442        37.45783         1.84188
C         26.83633        38.13707         1.99010
C         28.15844        40.31300         2.10147
C         26.88191        39.59317         2.24621
C         28.13569        41.75472         1.77461
C         26.85182        42.51483         1.67173
C         28.12065        44.67248         1.35265
C         26.88968        44.00336         1.50387
C         28.14349        46.03810         1.00206
C         26.94452        46.74177         0.80874
C         28.26824        48.83132         0.12170
C         26.97713        48.24016         0.61965
C         28.34983        50.15591        -0.45675
C         27.04488        50.91906        -0.70212
C         28.31991        53.05797        -0.76077
C         27.06171        52.37803        -0.79304
C         28.31062        54.46467        -0.85115
C         27.11297        55.20208        -1.08384
C         27.11380        56.59649        -1.01361
C         29.29948        12.69554        -1.55250
C         30.57356        14.73565        -1.79976
C         29.28854        14.14905        -1.63835
C         30.84906        16.09332        -1.51903
C         28.98048        17.15793        -1.39974
C         30.40543        19.11966        -1.77089
C         29.12810        18.43822        -1.89034
C         30.42350        20.54055        -1.74012
C         29.16098        21.31036        -1.85806
C         30.43234        23.35420        -1.09336
C         29.14056        22.73991        -1.41729
C         30.38573        24.80193        -0.89725
C         29.15332        25.39690        -0.33663
C         30.55229        27.47135         0.30501
C         29.31213        26.64779         0.44769
C         30.62204        28.82567         0.73275
C         29.46589        29.48218         1.41696
C         30.58087        31.69720         1.18621
C         29.42277        30.97340         1.46223
C         30.59625        33.12713         1.26382
C         29.38143        33.81574         1.73934
C         30.50104        36.03671         1.14967
C         29.33325        35.32545         1.71607
C         30.53199        37.53171         1.44256
C         29.31221        38.18228         1.92017
C         30.65334        40.33326         2.09523
C         29.34546        39.60549         2.04513
C         30.69703        41.78476         1.82109
C         29.41966        42.51452         1.91508
C         30.69481        44.66365         1.38412
C         29.40316        43.99349         1.67903
C         30.70316        46.01967         1.15287
C         29.45810        46.68033         0.71927
C         30.79612        48.88060         0.39077
C         29.52228        48.11648         0.30285
C         30.76839        50.28143         0.09156
C         29.59752        50.94602        -0.31872
C         29.53852        52.33586        -0.53059
C         31.78914        16.97902        -2.01905
C         32.86063        19.15102        -1.80624
C         31.66738        18.40740        -1.81623
C         32.87654        20.54447        -1.60116
C         31.62900        21.25122        -1.55768
C         32.89813        23.35380        -1.08596
C         31.63093        22.67336        -1.28221
C         32.93635        24.72073        -0.79882
C         31.69636        25.51485        -0.76784
C         32.96688        27.52797        -0.16783
C         31.72412        26.85709        -0.16224
C         33.00255        28.91358         0.11115
C         31.81557        29.54902         0.56535
C         33.06592        31.73274         0.57439
C         31.90914        30.93270         1.17048
C         33.01156        33.22561         0.54603
C         31.75735        33.91045         0.96733
C         32.88977        36.14950         0.40160
C         31.74798        35.30162         0.93562
C         33.10862        37.39055         1.25008
C         31.88772        38.10791         1.74104
C         33.22770        40.32169         1.80191
C         31.94502        39.57436         2.06170
C         33.15685        41.74463         1.47547
C         31.90823        42.46232         1.57579
C         33.11608        44.52876         0.94442
C         31.92221        43.89406         1.36097
C         33.12846        45.98932         0.54142
C         32.00694        46.78527         1.22386
C         31.94836        48.21457         0.73938
C         34.10290        21.23808        -1.41846
C         35.36885        23.29135        -0.91725
C         34.13756        22.61477        -1.15177
C         35.40691        24.65888        -0.63709
C         34.17335        25.39421        -0.58061
C         35.43225        27.48396        -0.28082
C         34.19154        26.79420        -0.37702
C         35.45189        28.89943        -0.37611
C         34.22240        29.64136        -0.21049
C         35.01421        31.89370        -0.92275
C         34.07358        31.05062        -0.28059
C         35.17768        33.24838        -0.70174
C         33.92251        34.00794        -0.40330
C         35.36108        36.02559        -0.00074
C         34.16794        35.39877         0.11459
C         35.60615        37.35620         0.67952
C         34.35297        38.12670         0.99358
C         35.57312        40.28659         0.66587
C         34.48455        39.53117         1.32150
C         35.51361        41.66360         0.65124
C         34.33147        42.40058         1.02605
C         34.28420        43.79090         0.76545
C         36.63198        25.35975        -0.35476
C         37.93101        27.40320         0.30091
C         36.65669        26.72203        -0.16977
C         37.97171        28.87736        -0.03429
C         36.77511        29.51176        -0.45777
C         37.98485        31.65990        -0.61247
C         36.91909        30.82335        -0.93497
C         37.83664        33.14029        -0.52583
C         36.51741        33.88039        -0.55640
C         37.84058        36.06375        -0.57595
C         36.50337        35.38258        -0.78117
C         37.85985        37.43549        -0.39573
C         36.69859        38.17466         0.02461
C         36.65982        39.55062         0.06796
C         39.16045        29.62018         0.02425
C         40.36279        31.85305        -0.11112
C         39.17613        31.02777        -0.18052
C         40.32695        33.19382        -0.40207
C         39.09818        33.92231        -0.60935
C         39.05743        35.30453        -0.65209
O         20.49654        48.89889        -2.21230
O         27.91544        20.08653        -3.43011
O         27.41069        41.89163         0.46697
O         23.46805        44.59219         2.41778
O         21.13171        33.31226         3.28895
O         14.11746        41.95113        -2.43622
O         18.51110        29.41415         3.07467
O         34.27269        39.92889         2.72957
O         29.38491        43.45461         3.05687
O         26.24303        28.62024         2.99023
O         29.58767        47.01177        -0.73445
O         17.75661        15.98739         1.20508
O         26.22603        39.93667         3.55267
O         10.10559        28.86456        -1.62874
O         15.78445        33.01909        -1.67781
O         21.28488        39.02719         2.57414
O         22.70589        22.45220         1.70578
O         27.71929        31.25062         3.26737
O         30.24414        37.00553         0.08852
O         23.37035        58.52055        -2.70097
O         16.47765        20.65982        -1.18505
O         29.64499        34.62521         2.95619
O         16.90866        14.23153        -1.74430
O         28.92921        26.37781         1.85212
O         25.54398        57.08244        -2.80021
O         24.10821        29.96732         3.08030
O          8.49392        31.04029         1.90206
O         17.79145        36.91461         1.67650
O         18.21231        33.60782         2.53090
O         22.75368        20.18682        -2.16497
O         23.39768        40.16181         3.13943
O         18.86117        26.89444         3.15280
O         21.13102        48.77911         1.18944
O         26.87458        13.14461        -3.08891
O         12.24282        34.41576        -2.21432
O         35.93126        31.29957        -1.79238
O         18.93398        24.31745         2.77923
O         12.03812        38.57288        -2.16821
O         37.11362        33.51321         0.73694
O         18.18187        19.35135         1.70610
O         25.07615        50.97588         0.83575
O         21.69768        10.76337         1.44700
O         19.02143        12.74204        -2.07187
O         29.96947        16.65841        -0.55760
O         29.12645        28.82170         2.68357
O         24.56497        16.50188        -3.23484
O         16.51572        25.69920         2.95992
O         21.64280        54.96528        -0.00024
O         23.49832        11.73288        -2.53596
O         24.83915        21.37091         0.78407
O         20.98387        14.22353        -2.68934
O         21.38488        52.70799        -2.76123
O         30.95803        25.54097        -2.05578
O         20.85279        39.62818        -0.92392
O         17.74984        48.43910        -2.47686
O         33.73286        32.55849         1.62167
O         20.65825        18.65364        -2.07682
O         32.67109        37.26033         2.65444
O         31.37083        39.94998         3.34913
O         11.66096        26.09273         2.00289
O         11.38979        36.42573         0.86335
O          8.79387        35.47531        -1.41340
O         27.70147        50.22934        -1.80296
O         23.04806        50.08923        -2.25348
O         29.19090        22.39093        -2.86157
O         32.39084        46.83928         2.63054
H         31.66845        47.26845         3.13469
O         32.21406        30.70069         2.56603
H         32.71418        31.48710         2.88717
O         26.94929        48.78706         2.01863
H         26.32962        49.55263         2.03379
O         10.33887        32.75401        -2.25456
H         10.66381        33.54766        -2.74424
O         32.99018        46.04516        -0.87961
H         32.63655        46.92641        -1.12441
O         21.55149        35.78600         3.50064
H         21.06054        35.05531         3.94813
O         14.00198        21.21733        -1.52232
H         14.86966        21.29749        -1.98437
O         16.62843        35.56488        -2.12404
H         16.45784        34.61998        -2.36583
O         20.31577        46.25359         1.39898
H         20.52359        47.19074         1.64515
O         33.18420        34.11997        -1.67209
H         33.83594        34.39768        -2.35387
O         39.09215        26.73731        -0.20273
H         39.12268        26.86305        -1.17296
O         12.91654        29.10091        -2.12234
H         12.20838        29.39179        -2.73778
O         28.55929         9.89466        -2.66362
H         27.90426        10.26137        -3.29385
O         23.33302        29.28095        -0.36566
H         22.64494        28.84930        -0.91540
O         24.76997        23.66685        -2.03067
H         25.44438        24.09139        -2.60226
O         21.78007        56.51100        -3.29090
H         22.07026        57.35084        -3.71503
O         32.50880        36.65748        -0.91195
H         32.36656        35.86603        -1.48547
O         36.15362        37.01375         2.00171
H         35.43053        36.63501         2.54748
O         18.81667        44.21465        -2.52400
H         18.12222        44.68803        -3.03032
O         22.10803        16.74571         0.61103
H         21.95312        15.84891         0.97584
O         36.16097        35.55329        -2.19491
H         36.22792        36.50833        -2.40833
O         22.36673        46.60383        -1.64228
H         21.87412        47.31662        -2.11546
O         20.97577        28.58123         3.45594
H         20.16381        28.17086         3.84558
O         26.21956        18.30671        -3.82648
H         26.55303        19.14340        -4.22961
O         25.49083        42.40060         3.58926
H         24.79967        41.88366         4.05877
H          5.26757        31.19863         1.46855
H          5.43801        33.64241         1.49321
H          7.38278        26.71374         0.00497
H          6.32958        28.87354         0.94856
H          6.59669        35.68355         1.05161
H          7.75197        37.90625         0.39995
H          9.75044        22.47886         0.27382
H          8.56986        24.64066        -0.03481
H          8.99194        40.01592         0.07666
H         10.21644        42.11275        -0.14866
H         12.22283        18.24678         0.67744
H         10.96976        20.35819         0.68031
H         11.39939        44.23601        -0.52743
H         12.58575        46.35757        -0.63601
H         14.60066        13.90169         0.32218
H         13.36550        16.11156         0.47621
H         13.72597        48.48406        -0.59210
H         14.92907        50.70494        -0.68209
H         17.46017         9.81753         0.82478
H         16.09112        11.78912         0.49950
H         16.18716        52.92008        -0.88108
H         17.41935        55.03255        -1.14100
H         20.24579         5.92147         1.87856
H         18.87866         7.89639         1.36982
H         18.69448        57.20123        -0.95349
H         19.96446        59.18226        -0.52862
H         23.81119         2.72579         2.23673
H         21.61570         3.89099         2.30558
H         23.34772        62.34679         0.53361
H         21.19450        61.17367         0.13445
H         25.84954         3.89904         1.42023
H         26.93310         5.95742         0.52133
H         26.75163        59.24012        -0.53100
H         25.51522        61.25063         0.06698
H         28.01147         7.98382        -0.34068
H         29.11456        10.12193        -0.69129
H         29.25631        55.01745        -0.74892
H         28.01854        57.12329        -0.67453
H         30.28538        12.21460        -1.46000
H         31.38362        14.08788        -2.16785
H         31.69698        50.85914         0.21119
H         30.47074        52.91569        -0.45465
H         32.65148        16.60725        -2.59131
H         33.81875        18.61562        -1.87768
H         34.11427        46.44829         0.84686
H         32.88965        48.78320         0.80294
H         35.04464        20.67073        -1.45744
H         36.30631        22.71712        -0.95939
H         36.34594        42.23218         0.20924
H         35.18672        44.29304         0.38754
H         37.56851        24.78760        -0.27590
H         37.96817        27.29313         1.42192
H         38.82225        37.96997        -0.45010
H         37.48799        40.12802        -0.37227
H         40.09253        29.10683         0.30195
H         41.32449        31.37373         0.12344
H         41.26455        33.77031        -0.39560
H         40.00543        35.86319        -0.59501
