         324
 CSIRO Nanostructure Databank - Neutral Graphene Oxide Data Set
C         30.50499        57.02275        -1.41390
C         30.57820        58.52701        -1.52061
C         29.48193        59.21575        -2.04791
C         30.71531        61.29747        -2.00788
C         29.54566        60.60166        -2.27137
C         33.05205        53.10416        -0.39431
C         32.62085        54.27907         0.41604
C         31.55086        55.08304        -0.28268
C         32.80194        57.19091        -0.27940
C         31.64243        56.39121        -0.63474
C         32.85886        58.54887        -0.53194
C         31.75565        59.23048        -1.17428
C         33.07066        61.32886        -1.27410
C         31.84337        60.63265        -1.45984
C         35.58955        48.83047        -0.46531
C         35.51876        50.17629        -0.13743
C         34.44911        51.06466        -0.72930
C         35.11666        52.89262         0.94701
C         33.92025        52.10403         0.26954
C         35.11631        54.38357         0.87498
C         33.94190        55.04315         0.57655
C         35.17939        57.24721         0.68134
C         33.88610        56.51392         0.47798
C         35.32556        58.55984        -0.05748
C         34.02304        59.37664        -0.00177
C         35.42994        61.35669        -0.61352
C         34.19502        60.71118        -0.70457
C         37.96119        44.49370        -0.27311
C         37.87762        45.88560         0.05774
C         36.76277        46.65340        -0.33279
C         37.80811        48.67379         0.58737
C         36.69951        48.03517        -0.05252
C         37.74517        50.06705         0.89955
C         36.55539        50.77990         0.62180
C         37.65151        52.91296         1.39944
C         36.42293        52.16689         1.09752
C         37.61926        54.36132         1.42697
C         36.37581        55.09511         1.11959
C         37.58399        57.29222         1.30226
C         36.40005        56.47579         0.97061
C         37.68491        58.71628         0.86650
C         36.54544        59.35529         0.34079
C         37.80391        61.42659         0.06678
C         36.59265        60.72858        -0.04796
C         40.51086        40.34844        -0.83087
C         40.42254        41.66262        -0.33950
C         39.23772        42.43021        -0.51321
C         40.14551        44.18933         0.99794
C         39.11001        43.74194        -0.02841
C         40.08992        45.71565         1.36304
C         38.96669        46.51655         0.72552
C         40.13240        48.60090         1.44376
C         38.95922        47.90832         0.93525
C         40.10092        50.01046         1.66444
C         38.88491        50.75169         1.44850
C         40.01438        52.86456         2.16100
C         38.82060        52.16995         1.64655
C         40.06291        54.38519         2.00541
C         38.81367        55.06345         1.59349
C         40.16097        57.23974         1.60145
C         38.83728        56.53365         1.66398
C         40.16433        58.71854         1.34204
C         38.91121        59.41704         0.97075
C         40.21763        61.47234         0.38764
C         38.99285        60.78025         0.50411
C         43.11160        36.26899        -1.91467
C         43.01741        37.59940        -1.43580
C         41.82980        38.32653        -1.41401
C         42.91759        40.34407        -0.44802
C         41.74860        39.66314        -0.88046
C         42.86000        41.64173         0.12127
C         41.59792        42.30917         0.19785
C         42.71983        44.29891         1.01254
C         41.53144        43.64066         0.67034
C         42.70282        45.76587         1.15354
C         41.38626        46.47855         1.14480
C         42.56733        48.55891         1.85129
C         41.35457        47.89980         1.55598
C         42.54736        49.97888         2.04398
C         41.32288        50.67109         1.99408
C         42.60794        52.89292         2.08272
C         41.30928        52.12195         2.25906
C         42.56893        54.32599         1.69914
C         41.36483        55.02951         1.73039
C         42.64384        57.08430         0.99923
C         41.30987        56.38680         1.08255
C         42.61543        58.49190         0.54671
C         41.48002        59.37120         0.98777
C         42.75910        61.38739         0.04122
C         41.50938        60.82520         0.58168
C         45.77290        33.77479        -2.92391
C         44.48227        34.29621        -2.57662
C         45.60802        36.36593        -1.92264
C         44.34611        35.58919        -2.07351
C         45.53202        37.73169        -1.34631
C         44.22550        38.22661        -0.77716
C         45.41664        40.24203         0.02236
C         44.25179        39.76102        -0.79678
C         45.32542        41.51199         0.82147
C         44.03956        42.28482         0.61298
C         45.17828        44.34966         1.45657
C         43.97813        43.62463         1.03014
C         45.10123        45.69509         1.84896
C         43.88796        46.45967         1.68590
C         44.99213        48.56222         2.46312
C         43.80088        47.81725         1.98381
C         45.03125        50.00831         2.18164
C         43.81000        50.70521         2.07122
C         45.03157        52.75236         1.54159
C         43.82922        52.10616         1.83608
C         45.00118        54.13089         0.91542
C         43.77019        54.94317         1.23169
C         45.07731        56.90953         0.27599
C         43.81185        56.33243         0.92035
C         45.14535        58.42167         0.25730
C         43.88674        59.17410         0.14884
C         45.19967        61.25098        -0.22093
C         43.93494        60.65758         0.03645
C         46.94471        34.41168        -2.63080
C         48.09511        36.57655        -1.86872
C         46.92224        35.63598        -1.75636
C         48.02895        37.89253        -1.41270
C         46.76041        38.44900        -0.98312
C         47.76733        40.67225        -0.68446
C         46.66295        39.68907        -0.31319
C         47.74709        41.92420         0.15439
C         46.54674        42.40445         0.67837
C         47.67252        44.42711         1.45125
C         46.47231        43.70860         1.26013
C         47.64017        45.69643         2.19709
C         46.29964        46.35934         2.41410
C         47.56699        48.62108         2.53998
C         46.29879        47.84683         2.65363
C         47.54157        50.01919         2.34851
C         46.26991        50.68420         2.10195
C         47.48288        52.79083         1.67696
C         46.25050        52.05057         1.71149
C         47.34693        54.18482         1.71225
C         46.26430        54.93592         1.18763
C         47.62018        56.96047         0.42787
C         46.37247        56.26241         0.75515
C         47.55823        58.27756        -0.06866
C         46.34154        59.05628         0.00208
C         47.60331        61.12524        -0.62091
C         46.38419        60.49797        -0.27932
C         49.20297        38.71591        -1.28534
C         50.27085        40.86124        -0.75683
C         49.13031        40.04339        -0.85786
C         50.20003        42.18778        -0.24657
C         48.93819        42.68500         0.26430
C         50.11113        44.68139         1.10452
C         48.90405        43.92197         0.95390
C         50.08589        45.89700         1.84389
C         48.86225        46.52703         2.26834
C         50.07143        48.66749         2.73000
C         48.81523        47.90300         2.52057
C         50.09318        50.19278         2.64643
C         48.76835        50.77982         2.19038
C         49.99258        52.67720         1.08953
C         48.76119        52.12330         1.82870
C         50.12899        54.17059         0.85731
C         49.20860        55.11299         1.20006
C         50.03633        56.82359        -0.24552
C         48.93899        56.32383         0.44429
C         49.99817        58.13732        -0.88886
C         48.69925        58.91500        -0.75207
C         49.98906        60.98440        -1.24987
C         48.78527        60.38901        -0.85986
C         51.33918        43.01166        -0.19386
C         52.43711        45.17708         0.37782
C         51.31701        44.27988         0.44477
C         52.39122        46.36559         1.09463
C         51.28009        46.61054         1.93316
C         52.65947        48.54997         2.14544
C         51.37136        47.91213         2.57745
C         52.62634        50.04798         2.11169
C         51.32414        50.74355         1.89640
C         52.56814        52.68769         0.96588
C         51.32534        52.01456         1.39228
C         52.55677        53.99671         0.41797
C         51.25424        54.61502        -0.04628
C         52.46972        56.79390        -0.43074
C         51.29526        56.12224        -0.18902
C         52.47725        58.18969        -0.82484
C         51.26069        58.86756        -1.04006
C         52.45277        60.91172        -1.60650
C         51.23001        60.26440        -1.34214
C         53.27278        47.57545         1.11939
C         55.21816        48.68263         2.23113
C         53.99550        47.86761         2.43238
C         55.17968        49.97113         1.74253
C         53.91257        50.75337         1.81757
C         55.02233        52.66495         0.68729
C         53.83076        52.07165         1.16606
C         54.98528        53.98057         0.18528
C         53.75961        54.66836         0.12475
C         54.99524        56.82049        -0.53692
C         53.76101        56.18028         0.03219
C         54.96354        58.15095        -0.94551
C         53.70715        58.85361        -1.08211
C         54.91164        60.85061        -1.86253
C         53.68859        60.21597        -1.52536
C         56.35100        50.66040         1.29801
C         57.49533        52.62175         0.37730
C         56.30235        51.95807         0.78927
C         57.50130        53.91941        -0.13829
C         56.19688        54.59325        -0.47848
C         57.57941        56.81290        -0.53384
C         56.26520        56.10061        -0.31471
C         57.44669        58.22726        -0.99904
C         56.19723        58.84156        -1.24384
C         57.36172        60.84201        -2.14404
C         56.15869        60.19669        -1.73584
C         58.68414        54.57089        -0.53965
C         59.90517        56.38300        -1.58068
C         58.76480        55.94567        -0.88093
C         60.26127        57.75473        -1.72331
C         58.58930        59.00995        -1.20120
C         59.85577        60.68425        -2.50306
C         58.60411        60.22774        -1.93482
C         60.95650        58.42599        -2.71833
C         60.89137        59.84969        -2.87298
O         39.82942        53.73240         3.30596
O         57.04784        56.57846         0.82464
O         40.33861        58.14305         2.70440
O         45.46754        48.21269         3.81210
O         42.95704        58.60355        -0.89752
O         47.25038        40.95066        -1.98492
O         46.93105        45.59416         3.48770
O         41.82472        60.34887         1.99310
O         45.59582        37.51610        -2.81102
O         48.38534        54.89535         2.30803
O         59.78605        58.56583        -0.65713
O         39.73935        43.42859         2.12047
O         53.37773        50.69121         3.20080
O         49.06516        58.24604        -2.01452
O         50.83409        48.14555         3.89269
O         35.41336        52.35400         2.24331
O         34.19892        57.18655         1.75573
O         37.97100        57.07361         2.70491
O         42.08422        52.55705         3.41152
O         42.11360        46.33446        -0.11098
O         49.68408        52.15846        -0.28444
H         48.79299        52.49181        -0.53109
O         50.25956        50.69664         3.99495
H         50.78908        50.02812         4.48929
O         40.89351        56.15758        -0.33098
H         41.65085        55.74065        -0.79623
O         44.19212        37.84925         0.62312
H         44.10906        36.87452         0.68355
O         35.54005        58.17411        -1.44984
H         35.67756        58.99525        -1.96930
O         54.06743        46.81676         3.35387
H         54.13625        47.18694         4.25689
O         33.76300        59.70036         1.38360
H         32.94571        60.23820         1.42187
O         51.06193        54.13002        -1.41033
H         50.72149        53.20318        -1.33303
O         44.91954        56.54903        -1.15299
H         44.18930        57.12530        -1.49238
O         29.23756        56.60679        -0.89153
H         29.15544        56.94643         0.02285
O         32.15429        53.87610         1.71296
H         32.03745        54.67979         2.25993
O         33.21592        51.40880         1.30248
H         33.73527        51.48924         2.13642
O         55.99768        54.40007        -1.91835
H         55.92033        53.43698        -2.08449
O         46.90533        35.16467        -0.35471
H         47.68793        34.58830        -0.22515
O         35.02961        51.78483        -1.83152
H         35.39833        51.13504        -2.46458
O         44.56081        40.26143        -2.12678
H         45.54171        40.51449        -2.17635
O         53.83787        56.59855         1.45675
H         54.75880        56.44695         1.76589
O         44.98391        53.86771        -0.52938
H         44.98302        54.75002        -0.98696
O         39.85541        45.79674         2.78588
H         39.61966        44.85494         3.04246
O         45.32240        41.10038         2.23302
H         45.28678        41.91292         2.78221
H         30.55284        56.61631        -2.46437
H         28.56673        58.65834        -2.29134
H         30.78126        62.37420        -2.21980
H         28.67355        61.12690        -2.68486
H         33.18818        53.26416        -1.47676
H         30.61539        54.54715        -0.50603
H         33.15265        62.36352        -1.64101
H         34.78217        48.36473        -1.05035
H         33.59365        50.43681        -1.10001
H         35.52934        62.38161        -1.00294
H         37.09258        44.01410        -0.75215
H         35.93015        46.16968        -0.86443
H         37.85678        62.47665        -0.25601
H         39.60774        39.85690        -1.22249
H         38.44785        42.02464        -1.16833
H         40.20582        62.48086        -0.05190
H         42.18792        35.75690        -2.22770
H         40.91004        37.87411        -1.81581
H         42.78607        62.46254        -0.19257
H         45.80389        32.82275        -3.47502
H         43.58902        33.69027        -2.78501
H         45.24849        62.33626        -0.39412
H         47.90929        33.98020        -2.93756
H         49.07350        36.16403        -2.16186
H         47.61253        62.21537        -0.77054
H         50.18321        38.27052        -1.51882
H         51.25147        40.46438        -1.06552
H         50.01485        62.07535        -1.39305
H         52.27819        42.65602        -0.64438
H         53.29278        44.92162        -0.26313
H         52.45721        61.98008        -1.86855
H         53.73489        47.92918         0.18248
H         56.18622        48.16577         2.31934
H         54.89003        61.88649        -2.23313
H         57.31783        50.13640         1.34016
H         58.45550        52.10347         0.52461
H         57.30211        61.81736        -2.64834
H         59.61522        53.98302        -0.56796
H         60.55015        55.61666        -2.03856
H         59.89742        61.72968        -2.84563
H         61.52811        57.85224        -3.46205
H         61.68423        60.30210        -3.49106
