         671
 CSIRO Nanostructure Databank - Neutral Graphene Oxide Data Set
C          6.10964        31.98099        -1.24502
C          6.13754        33.33752        -1.21679
C          8.71093        27.66557        -1.49793
C          8.72925        29.17131        -1.51421
C          7.39553        29.86859        -1.39717
C          8.49866        31.91700        -0.58256
C          7.32589        31.20127        -1.06769
C          8.55079        33.30040        -0.60042
C          7.38051        34.06919        -1.02251
C          8.79030        36.12623        -1.21183
C          7.46357        35.42099        -1.20324
C          8.73773        37.59452        -0.88085
C         11.01979        23.31343        -1.19896
C         10.77515        24.65666        -0.75664
C          9.86397        25.50771        -1.37057
C         11.10719        27.69297        -0.93909
C          9.86967        26.95906        -1.24988
C         11.03979        29.00255        -0.47114
C          9.70994        29.66756        -0.47042
C         10.82030        31.77293         0.50127
C          9.60844        31.09556        -0.05250
C         10.83679        33.30064         0.47823
C          9.73579        34.03167        -0.19136
C         11.02597        36.13075        -0.02997
C          9.85025        35.39269        -0.41997
C         11.04598        37.51971        -0.02993
C          9.84545        38.25951        -0.41612
C         11.01395        40.39773        -0.01078
C          9.87261        39.70460        -0.31308
C         10.94303        41.89681         0.19299
C         13.47934        19.05075        -0.92468
C         13.49598        20.49348        -0.90834
C         12.34857        21.25874        -1.29582
C         13.57514        23.40066        -1.11315
C         12.28266        22.66218        -1.18812
C         13.64843        24.89706        -0.96564
C         12.73478        25.76774        -1.78429
C         13.52837        27.73988        -0.40540
C         12.49914        27.22990        -1.37344
C         13.45173        29.03373         0.05928
C         12.19976        29.74487        -0.03698
C         13.28256        31.77935         0.87662
C         12.12129        31.07576         0.46158
C         13.21646        33.20750         1.09680
C         12.13211        33.94996         0.65261
C         13.28119        36.15227         1.06749
C         12.31185        35.37774         0.20543
C         13.37790        37.60380         0.83104
C         12.23689        38.26748         0.35793
C         13.44714        40.38688         0.55152
C         12.24781        39.69475         0.28242
C         13.57820        41.84796         0.19320
C         12.27229        42.60237         0.07407
C         13.63421        44.63755        -0.09769
C         12.34644        43.93836        -0.12124
C         13.78647        45.87226        -0.64432
C         15.90079        14.86024        -1.22069
C         15.83604        16.16527        -0.71421
C         14.65275        16.90910        -0.80881
C         15.70592        18.93738         0.20740
C         14.56001        18.29242        -0.49272
C         15.68496        20.45889         0.40530
C         14.63823        21.14701        -0.43492
C         15.86183        23.25884         0.13349
C         14.76588        22.58509        -0.62526
C         15.86216        24.74497         0.21118
C         14.71242        25.49478        -0.36213
C         16.00324        27.67932        -0.10054
C         14.68323        26.92772         0.08899
C         15.87310        29.05209         0.52374
C         14.65418        29.67853         0.60337
C         15.75653        31.79923         1.13679
C         14.57434        31.11088         0.92278
C         15.73941        33.25145         1.37323
C         14.42738        33.93081         1.55064
C         15.75482        36.13878         2.02530
C         14.43069        35.42898         1.66241
C         15.76643        37.59387         1.56543
C         14.58527        38.28722         1.16200
C         15.82684        40.43934         1.27057
C         14.61279        39.70433         0.96252
C         15.81905        41.82685         1.29996
C         14.52625        42.59577         1.13719
C         15.90601        44.68792         0.85929
C         14.74525        44.00002         0.60813
C         16.13751        46.01114         0.29410
C         15.10952        46.58472        -0.68147
C         16.00637        48.83572        -0.06863
C         14.93952        48.07000        -0.43420
C         15.92103        50.26809         0.10211
C         18.36688        10.66377        -2.22442
C         18.02934        12.00019        -2.33619
C         17.00708        12.78243        -1.73339
C         18.38053        14.91282        -1.29343
C         17.12044        14.16691        -1.46166
C         18.35730        16.17917        -0.63808
C         17.06992        16.67546        -0.00383
C         18.26536        18.94866         0.36685
C         17.00375        18.17985         0.30871
C         18.27751        20.33307         0.42770
C         17.06361        21.11028         0.30980
C         18.32953        23.23758         0.52855
C         17.12229        22.49898         0.30695
C         18.32357        24.66576         0.53248
C         17.16110        25.45152         0.36230
C         18.33200        27.57886         0.80013
C         17.18382        26.87921         0.40457
C         18.35215        28.98042         1.09637
C         17.16117        29.82355         0.69048
C         18.25901        31.73488         1.91605
C         16.95505        31.00215         1.63171
C         18.30780        33.07496         2.57874
C         16.86291        34.12624         0.97840
C         18.28702        36.10841         1.30763
C         16.95257        35.41886         1.41259
C         18.25221        37.57074         1.69094
C         17.00943        38.28791         1.61688
C         18.26058        40.42248         1.80370
C         17.03635        39.71594         1.57434
C         18.27249        41.85061         1.92616
C         16.97974        42.56028         1.81498
C         18.23975        44.82690         1.97482
C         16.95911        44.07545         1.70834
C         18.25319        46.33395         1.67068
C         17.25348        46.73859         0.58230
C         18.39611        48.92282         0.76915
C         17.36687        48.14170        -0.00672
C         18.04932        50.14440         1.24245
C         16.97719        50.96235         0.68720
C         18.34670        53.13813         0.71112
C         17.13951        52.38686         0.66199
C         18.24561        54.53993         0.45522
C         20.95549         6.74062        -3.62340
C         20.92660         8.08223        -3.18839
C         19.70715         8.77448        -2.97091
C         20.91785        10.86076        -2.51581
C         19.66039        10.12578        -2.61690
C         20.96339        12.27651        -2.14099
C         19.84762        13.12344        -2.28079
C         20.85986        14.93521        -1.04859
C         19.66891        14.34071        -1.56123
C         20.80972        16.23018        -0.48789
C         19.54481        16.84564        -0.29939
C         20.75332        18.97792         0.01513
C         19.54851        18.15274         0.47584
C         20.73914        20.38346         0.52866
C         19.55010        21.06019         0.58991
C         20.75530        23.18031         1.01347
C         19.55519        22.51795         0.73069
C         20.83640        24.60253         1.03794
C         19.61902        25.35107         0.63813
C         20.76671        27.44299         1.51162
C         19.60090        26.84875         0.81439
C         20.71278        28.87399         1.93524
C         19.47592        29.62399         1.61004
C         20.65278        31.70356         2.58217
C         19.43999        31.03429         1.94111
C         20.67405        33.19708         2.28161
C         19.50234        33.90746         2.18542
C         20.67037        36.05495         1.93595
C         19.47532        35.36013         1.93947
C         20.71650        37.50437         1.85871
C         19.46440        38.25221         1.82522
C         20.71469        40.39576         2.00432
C         19.48293        39.69121         1.91210
C         20.70800        41.81133         2.08414
C         19.48758        42.54671         2.06412
C         20.86138        44.78447         2.25938
C         19.51143        44.04189         2.22045
C         20.81995        46.17917         1.66839
C         19.65620        46.86088         1.40903
C         20.90967        49.00716         1.65018
C         19.76499        48.27647         0.87259
C         20.99746        50.47865         1.32504
C         19.90062        51.29944         1.48061
C         20.78171        52.96260        -0.02884
C         19.68107        52.51646         0.77199
C         20.66821        54.03004        -1.06902
C         19.34218        55.44539         0.40526
C         20.54218        57.12364        -1.08310
C         19.36397        56.54726        -0.47190
C         20.49222        58.47337        -1.45971
C         23.43515         4.03482        -4.31073
C         22.22874         4.70376        -4.23432
C         23.39551         6.69518        -3.36545
C         22.17320         6.05163        -3.76664
C         23.37183         8.02446        -2.91034
C         22.16017         8.76132        -2.89428
C         23.44406        10.90420        -2.53236
C         22.12817        10.15541        -2.58986
C         23.37952        12.15533        -1.68299
C         22.13127        12.85871        -1.58123
C         23.27511        14.81115        -0.59325
C         22.10371        14.21222        -1.10031
C         23.27629        16.15378        -0.10013
C         22.03842        16.87721        -0.06824
C         23.23870        18.88713         0.67110
C         22.04228        18.23399         0.26910
C         23.25283        20.28308         0.94335
C         22.05531        21.11856         0.53341
C         23.29259        23.10705         1.38067
C         21.96853        22.37442         1.39788
C         23.36951        24.59109         1.12604
C         22.03175        25.27287         1.25090
C         23.30866        27.46185         1.67433
C         22.06229        26.74518         1.27358
C         23.21777        28.89051         2.08328
C         21.99756        29.60477         2.10928
C         23.20213        31.71870         2.33222
C         21.97218        31.00221         2.29086
C         23.23105        33.16544         2.31037
C         21.95775        33.94860         2.54769
C         23.21888        36.03238         1.96705
C         21.95124        35.25858         1.77552
C         23.20074        37.44956         1.93336
C         21.93509        38.18267         1.92856
C         23.18017        40.29634         1.89178
C         21.96927        39.63962         1.96368
C         23.26748        41.76364         1.92300
C         21.98605        42.55185         2.11545
C         23.13660        44.54835         1.18405
C         22.00794        43.96874         1.70663
C         23.21854        46.00036         1.00651
C         22.10054        46.81109         1.40836
C         23.27571        48.82144         0.67879
C         22.16792        48.23449         1.24560
C         23.19662        50.21686         0.13052
C         22.27476        51.14239         0.91694
C         23.19678        52.93445        -0.59397
C         22.03869        52.37331         0.07703
C         23.09607        54.30635        -1.09238
C         21.85185        54.94947        -1.11945
C         22.90441        56.99904        -1.90542
C         21.76022        56.35605        -1.35037
C         22.75726        58.35269        -2.45069
C         21.58190        59.14772        -2.07479
C         22.78526        61.21444        -2.64628
C         21.58865        60.52441        -2.31083
C         24.63974         4.66128        -3.92539
C         25.87213         6.63462        -3.08752
C         24.64389         5.97431        -3.44728
C         25.88938         7.91657        -2.57492
C         24.57712         8.56243        -2.18693
C         25.83081        10.65877        -1.84156
C         24.64735        10.06070        -2.16315
C         25.84426        12.11206        -1.56166
C         24.53999        12.72098        -1.22046
C         25.77842        14.65929        -0.08077
C         24.49917        13.99991        -0.49883
C         25.80060        16.17037        -0.00641
C         24.47147        16.80348         0.30303
C         25.67506        18.82120         1.16829
C         24.46728        18.14645         0.75000
C         25.64309        20.18564         1.52232
C         24.41394        20.91999         1.40512
C         25.59946        23.01727         2.30716
C         24.42406        22.37217         1.58958
C         25.81696        24.50823         1.91752
C         24.52064        25.30094         1.82597
C         25.65548        27.38849         2.67428
C         24.50289        26.64552         2.01652
C         25.68082        28.85510         2.32385
C         24.44247        29.58566         2.28036
C         25.71206        31.73624         2.55966
C         24.42237        31.00232         2.32754
C         25.69295        33.17477         2.08911
C         24.42632        33.86287         2.13870
C         25.66123        36.00695         1.84669
C         24.42452        35.31281         1.99688
C         25.65239        37.42539         1.76627
C         24.43126        38.12643         1.88950
C         25.61612        40.21432         1.24152
C         24.50439        39.61099         2.06035
C         25.34862        41.49824         0.50750
C         24.36630        42.39907         1.19347
C         25.38010        44.32399         0.08338
C         24.31548        43.74891         0.83525
C         25.19495        45.69684        -0.48803
C         24.31876        46.56472         0.37984
C         25.41714        48.60062        -0.68323
C         24.56124        48.04917         0.45938
C         25.41878        49.95382        -0.93967
C         24.56755        50.86514        -0.06510
C         25.67649        52.94235        -1.04296
C         24.40627        52.27021        -0.60732
C         25.49733        54.30687        -1.64019
C         24.26868        54.98796        -1.55607
C         25.34445        57.01238        -2.49055
C         24.14406        56.32902        -2.03808
C         25.32303        58.39352        -2.73424
C         24.06861        59.11987        -2.86837
C         23.99093        60.57711        -2.81228
C         27.09970         8.59986        -2.23985
C         28.30350        10.59526        -1.40694
C         27.09430         9.92247        -1.80281
C         28.34496        11.92394        -1.01876
C         27.12502        12.75475        -1.11617
C         28.23895        14.56182         0.15035
C         27.08593        14.01565        -0.35380
C         28.19042        15.85547         0.89595
C         26.91131        16.64998         0.89720
C         28.13667        18.70960         1.48838
C         26.93784        18.09958         1.19144
C         28.15213        20.09071         2.10674
C         26.87393        20.88552         1.88829
C         28.16936        22.91693         2.46639
C         26.88452        22.22506         2.17110
C         28.20449        24.40292         2.76179
C         26.86344        25.17214         2.88465
C         28.16112        27.30208         2.42651
C         26.97658        26.65578         2.54672
C         28.17566        28.75391         2.08636
C         26.91179        29.54407         2.22648
C         28.15943        31.65964         1.82262
C         26.92052        30.93633         2.15783
C         28.14301        33.14014         1.63736
C         26.86756        33.86470         1.83527
C         28.11319        36.00705         1.55050
C         26.89075        35.29960         1.72601
C         28.08263        37.43300         1.42779
C         26.88007        38.13040         1.52524
C         27.95324        40.13396         0.46418
C         26.80494        39.54009         1.13280
C         27.70265        41.32208        -0.43894
C         26.58656        42.20394         0.04319
C         27.65283        44.18318        -0.99077
C         26.54093        43.56056        -0.26338
C         27.60153        45.54531        -1.33158
C         26.46160        46.35864        -0.97446
C         27.46992        48.29848        -2.12615
C         26.41679        47.71581        -1.26002
C         27.44363        49.75565        -2.48384
C         26.32452        50.58290        -1.93328
C         27.72029        52.68836        -2.52145
C         26.46495        52.06921        -1.99967
C         27.77337        54.08522        -2.58970
C         26.62663        54.90308        -2.27761
C         26.55519        56.26741        -2.61681
C         29.52182        12.56870        -0.49854
C         30.73149        14.44321         0.65220
C         29.49044        13.84286         0.02854
C         30.67753        15.95125         0.80965
C         29.44397        16.61587         1.04980
C         30.61067        18.75710         1.29731
C         29.39920        18.00631         1.31664
C         30.59998        20.19080         1.46774
C         29.39963        20.88076         1.77661
C         30.60385        23.02556         1.83547
C         29.40855        22.26690         1.97544
C         30.61106        24.47147         2.04895
C         29.45629        25.13122         2.43013
C         30.77647        27.34527         2.52840
C         29.45955        26.58908         2.84303
C         30.77738        28.84587         2.36829
C         29.46775        29.50503         2.07966
C         30.73062        31.74715         1.98072
C         29.45048        30.99673         2.17300
C         30.67589        33.16982         1.56010
C         29.41558        33.90164         1.61971
C         30.67109        36.03693         1.36156
C         29.36237        35.27622         1.48455
C         30.46489        37.39587         0.66509
C         29.36285        38.24646         1.34065
C         30.27669        40.07395        -0.28420
C         29.18713        39.52606         0.50411
C         30.18010        41.33434        -0.89777
C         28.94302        42.08279        -0.81869
C         29.93343        43.94169        -2.14161
C         28.82844        43.39069        -1.26446
C         29.91615        45.44137        -2.28167
C         28.76284        46.18607        -1.95158
C         29.85556        48.21330        -2.84557
C         28.73087        47.55912        -2.27399
C         29.83772        49.62854        -3.08781
C         28.72141        50.42770        -2.83779
C         28.78813        51.84543        -2.89832
C         31.85545        16.67955         0.81472
C         33.04114        18.82970         0.93669
C         31.84242        18.08808         1.02189
C         33.04640        20.22906         1.08523
C         31.80736        20.92975         1.35189
C         33.03359        23.08743         1.36288
C         31.80609        22.34166         1.52265
C         33.03426        24.47392         1.42809
C         31.85736        25.20942         1.80828
C         33.17122        27.32158         1.71058
C         31.94665        26.59686         1.99575
C         33.24011        28.79295         1.91804
C         31.98707        29.58961         1.92539
C         33.15518        31.70513         1.34920
C         31.97601        30.96194         1.74815
C         33.07138        33.05219         0.96073
C         31.82388        33.78067         1.10407
C         33.09375        35.86735         0.60222
C         31.69773        35.19987         0.57009
C         33.17972        37.44399         0.41964
C         31.78925        38.23261         0.56455
C         32.62574        39.84438        -1.32448
C         31.49119        39.25474        -0.51914
C         32.52352        41.26122        -1.69833
C         31.34830        41.95608        -1.48983
C         32.40236        43.94816        -2.62965
C         31.31786        43.45672        -1.69490
C         32.17135        45.22769        -3.40209
C         31.02921        46.06987        -2.87906
C         31.01127        47.44372        -3.12464
C         34.25243        20.94693         1.00251
C         35.50106        23.02038         1.17897
C         34.28783        22.35888         1.14902
C         35.57897        24.50200         1.40557
C         34.27918        25.19682         0.96371
C         35.55823        27.34986         0.95949
C         34.32537        26.66567         1.30303
C         35.62166        28.75948         0.93723
C         34.51283        29.52069         1.54549
C         35.61385        31.67196         0.62939
C         34.45583        31.00780         1.33941
C         35.36811        33.00672         0.06601
C         34.20518        33.68964         0.29842
C         35.36571        35.81121        -0.53090
C         34.05469        35.07663        -0.31691
C         35.28582        37.20837        -0.88614
C         34.06391        37.90211        -0.73573
C         35.05605        39.84619        -1.91287
C         33.94652        39.19752        -1.28123
C         34.88351        41.19620        -2.40439
C         33.69991        41.89153        -2.27250
C         33.53671        43.23095        -2.81784
C         36.78794        25.09722         0.67160
C         37.81016        27.25158         0.01146
C         36.71179        26.60242         0.53859
C         37.82512        28.66299        -0.17476
C         36.72040        29.42841         0.31387
C         37.74505        31.43217        -0.64921
C         36.71784        30.84007         0.08509
C         37.65284        32.84500        -1.08550
C         36.44934        33.63271        -0.72475
C         37.82762        35.81173        -0.97234
C         36.51822        35.10622        -0.73566
C         37.61681        37.13025        -1.67031
C         36.41574        37.82643        -1.55435
C         36.27044        39.16739        -2.04007
C         38.91516        29.30866        -0.81149
C         39.98803        31.37868        -1.70659
C         38.88530        30.68045        -1.06322
C         40.00556        32.72793        -1.88503
C         38.88666        33.56934        -1.49034
C         38.91373        34.92892        -1.54623
O         36.56470        33.04928        -2.09698
O         28.09927        32.21524         0.45722
O         34.22218        29.17203         2.94094
O         31.04333        28.24528         3.67489
O         30.13063        31.52909         3.33228
O         17.60029        33.35905         3.54137
O         18.69098        44.54010         3.33537
O         26.37944        25.09930         4.20874
O         26.96531        48.76503        -3.45181
O         22.88936        42.29979         3.24242
O         19.91564        26.26780        -0.49010
O         13.28899        35.83517         2.49316
O         31.63926        38.89700        -1.91651
O         35.52164        31.67465         2.09721
O         22.92320        27.33220         0.22420
O         34.04654        37.92083         1.43618
O         16.09741        18.32634         1.48881
O         18.82292        50.78787         2.21459
O         14.60835        22.95078        -2.04916
O         18.87316        12.76323        -3.19298
O         20.51059        27.76925         2.90757
O         25.63407        51.38311        -2.97688
O         28.34875        23.42000         3.83240
O         25.00249        13.95263         0.92268
O         23.15573        58.49168        -3.83449
O         26.62153        12.92896        -2.51812
O          9.13736        29.98799         0.82036
O         28.89502        29.02883         0.81440
O         10.48919        32.53407         1.69205
O         15.15419        33.43790         2.72900
O         15.42621        23.92808         1.37026
O         19.78212        54.05994        -1.91081
O         27.25814        15.81999         2.03986
O         16.50334        43.43215         2.93867
O         12.35554        25.38948        -2.88409
O         24.39954        45.48597        -1.73253
H         24.46612        46.30486        -2.27061
O         22.29403        21.50472        -0.85778
H         22.97895        22.21098        -0.85874
O         22.94552        51.53019         2.15600
H         22.33314        52.11188         2.65360
O         23.68972        11.36163        -3.90580
H         24.54941        11.83594        -3.91333
O         26.53557        53.09315         0.15650
H         26.20709        53.86908         0.65897
O         20.28166        48.19849        -0.48257
H         19.54919        47.89011        -1.07116
O         29.64467        38.58174         2.71618
H         30.51183        39.06675         2.71586
O         29.36446        26.49695         4.28781
H         29.88402        27.24108         4.67285
O         25.84940        31.85084         4.03558
H         25.68563        30.96257         4.42177
O         33.58849        35.58065         1.91994
H         33.95786        36.44695         2.25531
O         20.49472        31.59545         4.03672
H         19.58324        31.88216         4.26646
O         20.42677        55.20924         1.20151
H         21.09712        55.90619         1.04883
O         17.79186        47.99362        -1.41785
H         17.73603        48.88187        -1.83249
O          9.24705        36.08272        -2.62682
H         10.03020        36.67031        -2.69293
O         14.23277        41.87730        -1.11010
H         13.65571        41.41603        -1.75340
O         16.54404        30.48490         2.92145
H         16.31806        31.25591         3.48878
O         12.97073        35.29586        -1.11138
H         12.33482        34.89730        -1.74329
O         38.34188        36.22825         0.35381
H         37.62435        36.72078         0.80975
O         31.16583        36.27364         2.68674
H         30.59720        36.97245         3.09338
O         20.67522        48.80795         3.05579
H         21.39307        49.25076         3.55347
O         11.48834        25.12371         0.32438
H         11.94971        24.37641         0.75681
O         19.72781        17.80908         1.87252
H         18.98090        17.22329         2.12876
O         35.79017        24.72495         2.81843
H         35.01989        24.36886         3.30891
O         24.36499         8.17177        -0.77506
H         24.36284         7.19097        -0.74429
O         25.25928        50.94412         1.21571
H         25.96590        51.63152         1.11228
O         17.78216        47.01004         2.86494
H         18.21275        46.57326         3.63343
O         24.87231        39.85355         3.46606
H         24.11334        39.59098         4.02901
O         21.94280        34.87860         0.35347
H         22.32634        35.61839        -0.16292
O         33.54551        34.90564        -1.67690
H         34.21507        34.39264        -2.18012
O         21.75651        21.95175         2.77747
H         22.59780        22.04805         3.27420
O         17.75522        33.58424         0.10634
H         18.33976        34.31577        -0.22430
O         31.93635        39.05153         1.74713
H         32.86946        38.84901         2.07409
O         15.62255        46.41232        -2.03696
H         16.48516        46.89613        -2.07911
O         24.64432        41.05072        -0.75525
H         24.46607        41.86389        -1.27882
O         12.71392        27.95887        -2.62999
H         12.37664        27.37101        -3.34601
O          9.29660        29.58535        -2.80684
H          8.73837        29.20301        -3.51600
O         20.63451        19.10974        -1.43685
H         21.23530        19.84210        -1.70697
O         17.47041        30.36139        -0.62611
H         17.26725        29.65335        -1.28257
O         31.83880        44.84799        -4.75564
H         31.05903        44.24573        -4.69050
O         31.90063        14.04249        -0.06600
H         31.82109        14.36184        -0.98791
O         16.26959        27.90655        -1.51660
H         16.72441        27.11949        -1.88493
O         18.63746        36.09396        -0.14026
H         19.54923        36.44857        -0.22901
O         28.23425        19.84502         3.55044
H         27.37674        19.47000         3.84254
O         31.55323        44.07094        -0.39395
H         32.41201        43.74263        -0.05424
O         31.15680        35.02631        -0.76028
H         31.86991        34.68607        -1.35477
O         26.39020        24.52265         0.58651
H         25.63710        24.50712        -0.05571
O         27.22110        40.74929        -1.71645
H         26.29692        40.43680        -1.55516
O         23.71901        24.69544        -0.32020
H         23.53720        25.64006        -0.56394
O         15.24244        20.70296         1.77471
H         15.63896        19.98691         2.32491
O         25.35547        48.25393         1.67886
H         25.43121        49.23750         1.79692
O         17.09675        16.00830         1.30063
H         16.39409        16.44053         1.84099
O         26.18374        16.64446        -1.33682
H         25.42907        16.50912        -1.94780
O         14.54914        26.82871         1.53937
H         13.70693        26.37385         1.74851
O         25.36611        27.44691         4.09862
H         25.68713        26.55665         4.47076
O         25.18486        22.91026         3.68719
H         25.69932        23.60486         4.20835
O         13.89730        42.67423         2.43855
H         14.57540        43.04086         3.05615
O         29.72590        43.38568        -3.48112
H         28.76748        43.42435        -3.68440
O         22.57671        50.10419        -1.17624
H         23.20602        49.66432        -1.78732
O          9.96610        42.49092        -0.66795
H         10.29727        42.45068        -1.58796
O         15.87478        36.15746         3.46246
H         15.80987        35.22198         3.76479
O         21.91980        34.24842         3.96880
H         21.76134        33.40130         4.44378
O         34.25484        25.11229        -0.50538
H         33.40938        25.50235        -0.81273
O         29.90017        37.23559        -0.64469
H         30.37229        36.51051        -1.12324
O         21.20459        44.95629         3.66064
H         20.35995        45.00673         4.16398
O         36.92027        24.49782        -0.62399
H         36.06505        24.63573        -1.09138
H          5.17258        31.44640        -1.45968
H          5.22082        33.91576        -1.40500
H          7.78246        27.12743        -1.74398
H          6.49724        29.35810        -1.78013
H          6.57034        35.99245        -1.49908
H          7.85775        38.16860        -1.21001
H         10.18098        22.77166        -1.66275
H          9.18938        25.06668        -2.11839
H          8.94443        40.26198        -0.51009
H         10.57189        42.06138         1.24438
H         12.63283        18.54243        -1.41011
H         11.41143        20.70953        -1.47377
H         11.43185        44.52786        -0.28836
H         12.94552        46.34461        -1.17481
H         14.96377        14.37221        -1.53194
H         13.78976        16.44183        -1.30929
H         13.94635        48.52536        -0.56823
H         15.03753        50.79852        -0.28416
H         17.64858         9.96468        -1.77051
H         16.05910        12.29278        -1.46171
H         16.23717        52.96455         0.39845
H         17.29404        54.90957         0.04255
H         20.01029         6.22618        -3.85226
H         18.76242         8.22429        -3.09482
H         18.39277        56.91154        -0.84186
H         19.58823        59.05429        -1.22255
H         23.46401         2.99896        -4.67707
H         21.29659         4.20359        -4.53410
H         22.75552        62.31343        -2.67227
H         20.68266        61.10916        -2.09631
H         25.58779         4.10972        -4.00274
H         26.82045         6.09938        -3.25246
H         26.27159        58.93925        -2.85025
H         24.92240        61.15800        -2.87804
H         28.05801         8.07219        -2.36425
H         29.23007        10.00148        -1.37081
H         28.67058        54.57106        -3.00227
H         27.43769        56.76466        -3.04618
H         30.47267        12.01440        -0.49544
H         30.83506        14.00739         1.68647
H         30.77149        50.10723        -3.42053
H         29.73355        52.30663        -3.22379
H         32.81199        16.16700         0.63704
H         33.98660        18.30549         0.73316
H         33.11109        45.83475        -3.45326
H         31.88367        47.92768        -3.58829
H         35.19505        20.40393         0.83842
H         36.43675        22.44296         1.13529
H         35.74284        41.68392        -2.88886
H         34.33867        43.62764        -3.46013
H         37.71242        24.83331         1.24700
H         38.68169        26.66245        -0.30928
H         38.49726        37.63978        -2.09308
H         37.12903        39.65879        -2.52038
H         39.77853        28.70904        -1.13577
H         40.85786        30.77918        -2.01427
H         40.89039        33.21333        -2.32314
H         39.83287        35.43551        -1.88076
