         294
 CSIRO Nanostructure Databank - Neutral Graphene Oxide Data Set
C          1.51261         1.96860         0.31355
C          1.48049         3.39663         0.55135
C          2.66579         1.29365         0.06898
C          2.59532         4.16214         0.40393
C          1.46008         6.42665         0.99454
C          1.25744         7.69159         0.59539
C          2.72836         5.64323         0.73009
C          2.16470         8.39595        -0.39503
C          0.97273        10.72462        -0.16382
C          1.02966        12.08657        -0.08333
C          2.18484         9.93123        -0.37543
C          2.26514        12.82947        -0.03236
C          1.04231        15.13468        -0.07814
C          1.11731        16.48858        -0.17833
C          2.24558        14.31668         0.15164
C          2.37765        17.20577        -0.20829
C          2.40030        18.67053        -0.26184
C          3.95813         1.99630         0.07420
C          3.89699         3.49882         0.13046
C          5.21404         1.35780        -0.38372
C          5.02882         4.27690        -0.42911
C          3.55766         6.26880        -0.43231
C          3.55168         7.77194        -0.31579
C          4.93445         5.63963        -0.48299
C          4.70686         8.44605        -0.03656
C          3.49175        10.68988        -0.23907
C          3.47310        12.14530         0.03379
C          4.67550         9.91617         0.23065
C          4.76395        12.82396         0.11101
C          3.56760        15.05360         0.01655
C          3.56301        16.50992        -0.24563
C          4.78340        14.24560        -0.41125
C          4.87019        17.29390        -0.20636
C          3.52505        19.36503        -0.52021
C          4.80849        18.66180        -0.92181
C          6.32303         2.09351        -0.71951
C          6.14703         3.54828        -1.14509
C          7.60684         1.45552        -0.84452
C          7.45319         4.35534        -1.21818
C          6.10938         6.47077        -0.55597
C          6.00510         7.77627        -0.12894
C          7.43165         5.89677        -1.05109
C          7.27639         8.59044        -0.06619
C          5.92045        10.69538         0.56090
C          5.94685        12.15061         0.25707
C          7.21750         9.91445         0.74892
C          7.28800        12.78343        -0.09818
C          6.03742        15.03739         0.03238
C          6.06774        16.44201        -0.68023
C          7.30365        14.28082        -0.13949
C          7.38884        17.19802        -0.51963
C          6.07402        19.49138        -0.54839
C          7.37013        18.68393        -0.43031
C          8.79785         2.15336        -0.96078
C          8.76557         3.63848        -1.13106
C         10.06827         1.49877        -0.98038
C          9.98470         4.40698        -0.69989
C          8.60923         6.40741        -0.23038
C          8.41857         7.70392         0.52811
C          9.75788         5.71832        -0.04252
C          9.72500         8.46864         0.67271
C          8.48171        10.71011         0.44313
C          8.45783        12.20449         0.75229
C          9.74675         9.94762         0.59205
C          9.81128        12.81696         0.36625
C          8.57671        14.98938         0.25616
C          8.63503        16.45298        -0.15894
C          9.80210        14.20300        -0.27914
C          9.87210        17.20109         0.34530
C          8.55230        19.33691        -0.26239
C          9.83464        18.67971        -0.03847
C         11.26466         2.19271        -0.78759
C         11.23980         3.64548        -0.46373
C         12.55226         1.63041        -0.86931
C         12.23326         4.02377         0.62091
C         10.88825         6.31343         0.73647
C         10.90588         7.80548         0.80088
C         12.13116         5.52056         1.00413
C         12.17287         8.53540         0.93345
C         10.94033        10.71231         1.11768
C         10.95033        12.08209         0.44302
C         12.21355         9.89777         0.97502
C         12.17427        12.54771        -0.31491
C         11.11726        14.97127        -0.09869
C         11.13060        16.48939        -0.18482
C         12.30418        14.06630        -0.25009
C         12.25688        17.27624        -0.25595
C         10.99738        19.38441        -0.00071
C         12.24442        18.64630         0.41678
C         13.73485         2.29713        -0.43247
C         13.63477         3.49309         0.31889
C         14.97884         1.55308        -0.74492
C         14.71190         4.10173         1.22631
C         13.42177         6.29116         1.33951
C         13.41810         7.70803         0.68668
C         14.63465         5.53656         0.82986
C         14.73286         8.44308         1.07947
C         13.49168        10.69408         1.09159
C         13.49750        11.90729         0.16094
C         14.75923         9.92694         0.82645
C         14.78454        12.67771         0.19813
C         13.61598        14.58447        -0.69175
C         13.55088        16.80575        -0.66951
C         14.79064        14.10142        -0.22166
C         14.75300        17.30512        -0.25715
C         13.56987        19.36567         0.38105
C         14.79484        18.66253         0.29176
C         16.05419         1.44737         0.06694
C         16.05386         3.48229         0.95809
C         17.40812         0.89758        -0.09365
C         17.11667         4.01251         0.29990
C         15.97972         6.25214         0.79948
C         15.91802         7.75015         0.37701
C         17.06372         5.48384         0.04513
C         17.26469         8.44623         0.59765
C         16.06637        10.63036         1.14559
C         16.02306        12.13866         0.85222
C         17.29232         9.94024         0.54594
C         17.30621        12.85896         0.56268
C         16.00244        14.93830        -0.05430
C         15.97834        16.44832        -0.12144
C         17.30334        14.24631         0.03080
C         17.27999        17.18814        -0.35295
C         16.03937        19.23646         0.58098
C         17.31442        18.43047         0.63707
C         18.46168         1.75906        -0.03244
C         18.29883         3.25465        -0.35153
C         19.80043         1.21475         0.18709
C         19.62461         4.03237        -0.04507
C         18.30748         6.23054        -0.31921
C         18.44872         7.67433         0.10707
C         19.57516         5.46090        -0.58241
C         19.60520         8.45150        -0.43735
C         18.45107        10.62179         0.27186
C         18.54785        12.07380         0.36940
C         19.76898         9.88401         0.07681
C         19.72711        12.76235         0.15074
C         18.49930        14.98161         0.06307
C         18.51905        16.36688        -0.15921
C         19.76301        14.23661         0.52197
C         19.80841        17.11241        -0.36194
C         18.54328        19.22041         0.31649
C         19.73366        18.59325         0.00463
C         20.93774         1.92063         0.03437
C         20.88645         3.29227        -0.58766
C         22.11599         4.13638        -0.31089
C         20.86273         6.20371        -0.81404
C         20.83824         7.72025        -0.88258
C         22.10649         5.47273        -0.45175
C         22.08935         8.52504        -0.90581
C         20.77383        10.66379        -0.80751
C         20.91698        12.10685        -0.34316
C         22.06777         9.86882        -0.86109
C         22.03106        12.85285        -0.62585
C         21.02322        14.96504         0.09878
C         21.01498        16.46288         0.34348
C         22.07869        14.27685        -0.40636
C         22.25525        17.22535        -0.04852
C         20.96186        19.29355        -0.06148
C         22.18856        18.58873        -0.18423
O         13.58914        15.69741        -1.52456
O         11.11919         4.47964        -1.65200
O         11.13049         5.68632         2.05438
O         17.28917         5.92188        -1.34568
O          3.03621        14.71153         1.33301
O         15.90475        15.81022         1.20346
O         16.63586        12.89716         1.92155
O          9.92621        17.12435         1.77607
O          4.28516         2.72138         1.34685
O         11.90111        14.55511         1.07611
O          8.20560         4.01656        -2.44049
O          8.35474        16.70712        -1.55998
O         20.09913         5.61273        -1.93200
O         14.44891        11.76383        -0.92880
O          2.97439        10.35476        -1.56170
O         18.23088         7.87150         1.54635
O         16.01341         2.12781         1.31716
O         19.82935         8.20807        -1.85193
O          4.95953        10.31696         1.61887
O          9.27755        10.40749        -0.72301
O         15.68776         7.94454        -1.03067
H         16.21886         7.28328        -1.54024
O         20.81146        16.69077         1.77283
H         21.65533        16.50185         2.23428
O         16.37828         6.17723         2.18668
H         15.64991         6.58257         2.72341
O          5.85519        20.19395         0.67994
H          5.59673        19.51908         1.34963
O         18.04886         3.29225        -1.76795
H         17.86683         4.22763        -2.02628
O         11.80931         3.26315         1.78245
H         12.45907         3.46955         2.49845
O          5.09016        17.64372         1.18358
H          5.13394        16.79610         1.69763
O         17.27318        17.75954        -1.69027
H         16.99047        17.06585        -2.32287
O         13.49880         6.35548         2.77248
H         12.58709         6.19442         3.11633
O         14.85541         8.33837         2.52153
H         15.59829         8.92558         2.81346
O          9.68312        14.01532        -1.71156
H          8.92190        13.39201        -1.87054
O         13.53244        11.22694         2.46201
H         13.91932        10.52548         3.03276
O         20.36219         9.76855         1.39245
H         19.72639         9.26624         1.95434
O          7.31747         9.66224         2.17288
H          6.40281         9.73952         2.54218
O         10.71641        10.94237         2.54052
H         11.57049        11.28144         2.90414
O          8.57853        14.95186         1.70356
H          9.17456        15.71450         2.02176
O         19.70350        14.25119         1.97676
H         19.79377        15.19580         2.25553
O          5.90562        15.21396         1.47546
H          6.80753        15.09323         1.88537
O          4.74361        14.02307        -1.84090
H          4.83560        14.89389        -2.29951
O          7.58883         6.45262        -2.38981
H          8.16542         5.82383        -2.89008
O          8.15511        12.39298         2.13380
H          8.90838        12.02517         2.65211
O         20.09342        17.05924        -1.78776
H         19.34264        17.50653        -2.24018
O          2.93209         5.83458        -1.66225
H          2.23198         6.49460        -1.90045
O          5.95110        16.22686        -2.11171
H          6.88056        16.11335        -2.43971
O         19.74964         4.16060         1.38523
H         19.77710         3.26127         1.77562
O          3.49806         5.71784         1.95580
H          3.89160         4.83765         2.14155
O         12.18397        18.41133         1.85173
H         11.31526        17.89920         2.03740
O         20.24771        10.79067        -2.14679
H         20.10557         9.87672        -2.49785
O         16.28886        10.51720         2.59885
H         16.66373        11.39520         2.87945
O          8.01747         7.22935         1.83745
H          7.86837         8.02644         2.40621
O         14.35666         3.83593         2.61862
H         14.74806         2.96135         2.83719
O          4.74030        18.55106        -2.35672
H          5.26447        17.76433        -2.63843
O         20.79847         3.06561        -2.00584
H         20.58350         3.93020        -2.43241
O          5.65623         3.44708        -2.51661
H          6.45044         3.39912        -3.09698
O          7.53734        12.35670        -1.49184
H          6.72995        12.57735        -2.00983
O          1.58854         8.09926        -1.71160
H          2.03800         8.70235        -2.34767
O         17.44739        17.90354         1.97664
H         16.82319        17.14587         2.08341
O         13.33746         7.40421        -0.72050
H         13.51566         8.21912        -1.23744
O         11.98536        12.15181        -1.68637
H         11.14072        12.55695        -1.99621
O          7.51066         8.97684        -1.43016
H          7.57670         8.16148        -1.98892
H          0.55567         1.42706         0.31758
H          0.51605         3.85912         0.80697
H          2.64676         0.22092        -0.17368
H          0.72907         5.96505         1.67856
H          0.33488         8.21360         0.89662
H          0.00877        10.20741        -0.05299
H          0.08729        12.64045         0.03451
H          0.06572        14.63913        -0.18033
H          0.19340        17.07235        -0.30710
H          1.45558        19.19891        -0.06070
H          5.31323         0.26925        -0.23740
H          3.50247        20.46398        -0.56215
H          7.64781         0.36235        -0.71247
H          6.22139        20.26961        -1.34215
H         10.09234         0.40468        -1.10222
H          8.55069        20.43858        -0.25301
H         12.65427         0.59098        -1.21767
H         11.01651        20.46954        -0.18767
H         14.98373         1.00405        -1.69775
H         13.58798        20.39869         0.76459
H         17.57708        -0.19023        -0.02453
H         16.08280        20.29459         0.88447
H         19.84961         0.17166         0.53866
H         18.50888        20.32058         0.37975
H         21.91399         1.45712         0.24303
H         23.05445         3.62512        -0.04517
H         23.02210         6.05496        -0.27091
H         23.05082         7.99504        -0.97695
H         23.02544        10.40855        -0.90713
H         22.91698        12.38479        -1.07665
H         23.00088        14.79976        -0.69962
H         23.22814        16.71680        -0.11539
H         20.97479        20.38530         0.07349
H         23.11265        19.16389        -0.34570
