         404
 CSIRO Nanostructure Databank - Neutral Graphene Oxide Data Set
C          1.25608         3.39827        -0.43545
C          0.05020         4.08189        -0.44366
C          1.20111         6.22310        -0.14876
C          0.01783         5.47617        -0.30259
C          1.18666         7.67271        -0.01408
C         -0.02077         8.40361        -0.00653
C          1.17302        10.52486         0.17822
C         -0.02703         9.78605         0.08681
C          1.17002        11.97897         0.22178
C         -0.02922        12.70803         0.07451
C          1.17121        14.82210         0.16357
C         -0.02121        14.09285         0.00379
C          1.18343        16.30334        -0.16656
C         -0.07529        17.07531         0.14441
C          1.18626        19.18270        -0.04279
C         -0.04833        18.42592         0.12103
C          1.18567        20.61110        -0.14456
C         -0.02449        21.33439        -0.36992
C          1.13656        23.47892        -0.34629
C         -0.02356        22.71660        -0.52377
C          1.11157        24.91692        -0.36596
C         -0.09381        25.66485        -0.37098
C          1.13823        27.75932        -0.13398
C         -0.07423        27.04485        -0.28353
C          1.15184        29.21696         0.00698
C         -0.04608        29.97872        -0.20063
C          1.10961        32.10364         0.14279
C         -0.04096        31.36563        -0.18133
C          1.14188        33.53457         0.16412
C         -0.05482        34.30337        -0.02031
C          1.16835        36.40783         0.06365
C         -0.02908        35.68715        -0.10035
C          1.22429        37.80779        -0.13319
C          3.71330         3.42253        -0.26948
C          2.47710         4.10617        -0.27905
C          3.67566         6.25127         0.02408
C          2.44979         5.53384        -0.13429
C          3.65697         7.67575         0.13444
C          2.41144         8.38804         0.10774
C          3.64341        10.53811         0.30466
C          2.40572         9.81617         0.20540
C          3.64540        11.96498         0.39438
C          2.39126        12.69549         0.36888
C          3.62824        14.85485         0.67946
C          2.37102        14.12139         0.39152
C          3.66866        16.35267         0.59837
C          2.37852        17.06751         0.36821
C          3.65417        19.19894         0.06317
C          2.41440        18.51330         0.06383
C          3.65777        20.62412        -0.04954
C          2.41735        21.30975        -0.07893
C          3.66953        23.46347        -0.29880
C          2.39568        22.79611         0.14401
C          3.60028        24.89867        -0.55428
C          2.33683        25.63035        -0.30116
C          3.63370        27.69363         0.17734
C          2.35095        27.02382        -0.14087
C          3.60915        29.18613         0.45065
C          2.33401        29.90044         0.27144
C          3.62609        32.06979         0.37124
C          2.31974        31.35807         0.63690
C          3.61798        33.48529         0.35362
C          2.38088        34.20665         0.33096
C          3.67855        36.37023         0.23770
C          2.38399        35.68989         0.59508
C          3.67698        37.78679        -0.01253
C          2.42632        38.48694        -0.12684
C          6.15720         3.41358        -0.08163
C          4.93078         4.10897        -0.09207
C          6.13106         6.24665         0.26470
C          4.91651         5.54825         0.06929
C          6.11485         7.67664         0.34284
C          4.87838         8.38826         0.26163
C          6.11156        10.52532         0.39469
C          4.87585         9.82080         0.32868
C          6.10723        11.94859         0.38130
C          4.88319        12.64986         0.41233
C          6.16746        14.85560         0.32159
C          4.92375        14.11088         0.63009
C          6.15328        16.30990         0.16834
C          4.93317        17.06258         0.31065
C          6.10570        19.20869        -0.13071
C          4.90462        18.47545         0.11618
C          6.12751        20.62893        -0.23581
C          4.90360        21.34380        -0.14973
C          6.14509        23.50962        -0.43616
C          4.88115        22.78208        -0.30852
C          6.15400        24.89537        -0.48708
C          4.91226        25.66394        -0.60351
C          6.11155        27.76806         0.01972
C          4.92051        27.07809        -0.17305
C          6.09035        29.20686         0.25957
C          4.88040        29.91745         0.34042
C          6.08854        32.06823         0.37754
C          4.85196        31.35380         0.34834
C          6.07292        33.49056         0.41513
C          4.86763        34.19715         0.36588
C          6.12232        36.34563         0.08582
C          4.87056        35.65560         0.25923
C          6.12332        37.76367        -0.16019
C          4.88424        38.45660        -0.21579
C          8.59375         3.36752         0.14677
C          7.38839         4.07350         0.16042
C          8.56884         6.20198         0.57898
C          7.38146         5.51920         0.35954
C          8.55164         7.65016         0.78399
C          7.32443         8.40156         0.52966
C          8.59727        10.53930         0.49887
C          7.35055         9.81358         0.49964
C          8.56987        11.97558         0.38125
C          7.35079        12.67358         0.34421
C          8.59321        14.77758        -0.17402
C          7.32712        14.11463         0.18811
C          8.60003        16.27646        -0.38589
C          7.33284        16.99261        -0.16555
C          8.64693        19.19636        -0.58879
C          7.31617        18.43575        -0.42276
C          8.64180        20.65329        -0.36872
C          7.39224        21.36144        -0.35157
C          8.64831        23.51525        -0.37108
C          7.39742        22.77367        -0.38490
C          8.65689        24.91017        -0.45521
C          7.40373        25.68773        -0.75211
C          8.56967        27.79023        -0.03666
C          7.39088        27.10080        -0.18879
C          8.57210        29.21077         0.26173
C          7.32977        29.93112         0.28653
C          8.57776        32.05681         0.35912
C          7.32795        31.34461         0.38019
C          8.60206        33.47131         0.35335
C          7.35167        34.23599         0.69788
C          8.56907        36.32587         0.00158
C          7.34493        35.65203         0.18117
C          8.57478        37.74739        -0.23958
C          7.34727        38.43987        -0.31314
C         11.13548         3.35323         0.21882
C          9.85454         3.97997         0.52744
C         11.11943         6.25414         0.45703
C          9.86275         5.52055         0.76017
C         11.11658         7.66128         0.37478
C          9.89223         8.40700         0.71643
C         11.07342        10.51419         0.27270
C          9.83072         9.84456         0.46258
C         11.07616        11.95709         0.61930
C          9.81703        12.71772         0.42973
C         11.03537        14.89579         0.45393
C          9.83541        14.07340         0.20038
C         11.04872        16.31513         0.01715
C          9.89560        17.01475        -0.29152
C         11.11132        19.17661        -0.42553
C          9.92048        18.45487        -0.44603
C         11.13069        20.62155        -0.27366
C          9.87212        21.33639        -0.24669
C         11.11853        23.44294        -0.06554
C          9.89478        22.77332        -0.21729
C         11.17753        24.89883        -0.24345
C          9.91223        25.66932        -0.54403
C         10.97347        27.63470         0.65213
C          9.92226        27.20758        -0.41289
C         11.04157        29.18866         0.86319
C          9.78274        29.90093         0.41556
C         11.04548        32.02673         0.24892
C          9.80687        31.32597         0.35635
C         11.05046        33.44386         0.11873
C          9.81150        34.16901         0.18965
C         11.02415        36.30189        -0.11778
C          9.81090        35.60674         0.04651
C         11.03232        37.73808        -0.26678
C          9.80839        38.42988        -0.34739
C         13.55634         3.39603         0.08725
C         12.31558         4.08288         0.17082
C         13.47470         6.25561        -0.24963
C         12.31018         5.55041         0.14660
C         13.50439         7.66923        -0.25514
C         12.29808         8.37830         0.04335
C         13.51093        10.56043        -0.24934
C         12.26603         9.81683         0.06236
C         13.57947        12.04121         0.08216
C         12.37409        12.68698         0.70245
C         13.64627        14.91321         0.69617
C         12.33071        14.18576         0.77065
C         13.62633        16.35347         0.27425
C         12.34986        16.95596        -0.22417
C         13.67658        19.16709        -0.51818
C         12.37313        18.43402        -0.55829
C         13.65347        20.64724        -0.31762
C         12.34331        21.32039        -0.12841
C         13.59268        23.43556         0.25142
C         12.36245        22.73767         0.06040
C         13.58946        24.87520         0.36996
C         12.38671        25.61083         0.20528
C         13.54287        27.72258         0.51231
C         12.33676        27.00159         0.39897
C         13.52970        29.18276         0.40792
C         12.30504        29.88212         0.39395
C         13.50457        31.98587        -0.06858
C         12.28894        31.28794         0.19394
C         13.51262        33.43442        -0.17409
C         12.27527        34.15775        -0.03921
C         13.47904        36.31855        -0.16428
C         12.26869        35.58914        -0.12532
C         13.49481        37.74412        -0.26718
C         12.26653        38.42886        -0.33884
C         15.97353         3.44124        -0.27728
C         14.75041         4.06423        -0.23844
C         15.97305         6.22477        -0.70353
C         14.64654         5.48374        -0.83468
C         15.94745         7.67190        -0.69723
C         14.75948         8.39025        -0.50465
C         15.97187        10.58620        -0.50582
C         14.78843         9.83990        -0.42341
C         16.04373        12.00128        -0.16685
C         14.89610        12.68067         0.23610
C         16.18827        14.85381         0.28468
C         14.92561        14.10735         0.62590
C         16.11580        16.26685        -0.17415
C         14.88585        17.04655        -0.08470
C         16.16896        19.14419        -0.14890
C         14.92581        18.41126        -0.27528
C         16.09039        20.56121         0.16908
C         14.90710        21.29329         0.13206
C         16.03925        23.41845         0.60795
C         14.85791        22.72514         0.36512
C         16.03259        24.86405         0.89773
C         14.77913        25.60395         0.65291
C         16.02461        27.78342         0.74082
C         14.76460        27.00625         0.62349
C         16.01868        29.13355         0.11121
C         14.73991        29.88688         0.17685
C         15.97832        31.94809        -0.47998
C         14.72480        31.26571        -0.07947
C         15.96446        33.44859        -0.63707
C         14.71482        34.13980        -0.30178
C         16.04781        36.36730        -0.17367
C         14.74067        35.58555        -0.05140
C         15.97152        37.82191        -0.42073
C         14.73505        38.45721        -0.38846
C         18.37956         3.31490        -0.75808
C         17.08726         4.01275        -1.11546
C         18.42571         6.20744        -1.07878
C         17.13212         5.52253        -0.92217
C         18.48760         7.66711        -0.91556
C         17.19529         8.38958        -1.03524
C         18.52819        10.60512        -0.87664
C         17.19941         9.91172        -0.97527
C         18.56072        12.00349        -0.42584
C         17.33355        12.70603        -0.21739
C         18.63716        14.81552        -0.11424
C         17.39493        14.10039        -0.09831
C         18.67510        16.24570        -0.03715
C         17.44252        17.01519        -0.29659
C         18.64660        19.12935         0.21756
C         17.39551        18.46487        -0.07903
C         18.64388        20.52756         0.44739
C         17.33671        21.20121         0.62671
C         18.59227        23.41857         0.58021
C         17.30575        22.69799         0.83226
C         18.60230        24.91954         0.62377
C         17.33746        25.61296         1.02432
C         18.63423        27.79739         0.60545
C         17.34792        27.11004         0.93077
C         18.62731        29.17914         0.32156
C         17.33552        29.83086        -0.04094
C         18.56667        32.08057        -0.07514
C         17.28292        31.32235        -0.06822
C         18.59107        33.49355        -0.57077
C         17.27129        34.20958        -0.71606
C         18.48021        36.38006        -0.62240
C         17.28970        35.66760        -0.52769
C         18.42568        37.83379        -0.67428
C         17.19681        38.50469        -0.65517
C         19.54464         3.94417        -0.54838
C         20.86314         6.13818        -0.36378
C         19.70533         5.38658        -0.84404
C         20.87533         7.49821        -0.39979
C         19.70590         8.28932        -0.72061
C         20.97270        10.47790        -0.18353
C         19.81663         9.77583        -0.75859
C         20.98489        11.83087        -0.06592
C         19.80133        12.64491        -0.23932
C         21.06897        14.79731         0.07671
C         19.85386        14.07573        -0.08270
C         21.08164        16.17013         0.21350
C         19.88181        16.93524         0.14696
C         21.06218        19.11566         0.48915
C         19.87114        18.39546         0.26583
C         21.06014        20.49312         0.65339
C         19.85649        21.23458         0.64978
C         21.02058        23.44405         0.88099
C         19.87047        22.69359         0.74582
C         21.02922        24.87282         0.90618
C         19.88279        25.63335         0.80939
C         21.06184        27.83608         0.66334
C         19.86205        27.09279         0.73630
C         21.05116        29.20588         0.45931
C         19.84446        29.91499         0.25286
C         21.00399        32.12962        -0.00315
C         19.86016        31.35675         0.01400
C         20.98913        33.55559        -0.13198
C         19.83515        34.27313        -0.38141
C         20.92492        36.48850        -0.69887
C         19.77363        35.71173        -0.60148
C         20.85920        37.89662        -0.83042
C         19.65066        38.55710        -0.80966
O          8.58847        15.34405        -1.53598
O          3.60992        28.21729         1.56765
O         17.04131         9.21375        -2.24216
O         17.77484        31.92404         1.17702
O          4.17646        25.34933        -1.84330
O         15.85594        32.53758        -1.79813
O         16.68520        29.20141        -1.19989
O          9.28168         8.04059         1.99755
O         18.50159        24.21060        -0.66258
O         16.69675        25.11715         2.22329
O         18.03278        33.75282        -1.89408
O         16.65740        27.75673         2.06158
O         11.50368        14.69270         1.84695
O         15.54074        35.95510         1.15276
O         19.25284         5.72670        -2.18497
O         15.84436        14.54182         1.67956
O         13.65711        15.98443         1.69143
O         10.78479        25.25087        -1.65053
O          9.88375         4.60412         1.87659
O         17.26937        21.80773         1.98356
O          4.29115        14.43788         1.92794
O         19.38369        10.36223        -2.02805
O         16.75025        16.48373        -1.47592
O         14.46731         5.29630        -2.20949
O         12.41855        17.41814        -1.61272
O         13.79082        20.06977        -1.67415
O         11.81836        12.09323         1.90811
O          2.84010        16.85886         1.72964
O          7.87845        18.77702        -1.75916
O         13.29882        11.59521        -1.28857
O          7.39936        34.36789         2.17071
H          6.58587        34.84272         2.44658
O         10.29463        27.78533        -1.67455
H         10.63784        27.05286        -2.23919
O          7.42182        25.88653        -2.21449
H          7.32561        25.00802        -2.64031
O          2.18824        31.36026         2.12454
H          2.80422        30.67694         2.46956
O          2.28086        35.81462         2.07595
H          1.49928        35.28904         2.35257
O         10.49908        27.02629         1.87500
H         10.57272        27.71854         2.58002
O          1.36789        16.35332        -1.62250
H          0.57763        15.95135        -2.04067
O         16.73133         3.75577        -2.49731
H         15.90239         4.29696        -2.66647
O          2.36342        22.97135         1.62280
H          1.57599        22.48703         1.95235
O         11.06224        29.41303         2.32232
H         11.99455        29.51824         2.60826
H          1.27883         2.30497        -0.54738
H         -0.89284         3.53054        -0.56318
H         -0.95822         5.97887        -0.31732
H         -0.98392         7.88159        -0.07926
H         -0.99662        10.30071         0.08796
H         -0.98792        12.18634        -0.03982
H         -0.96864        14.61931        -0.17756
H         -1.02605        16.55022         0.31489
H         -0.98293        18.97996         0.28923
H         -0.96692        20.78893        -0.50603
H         -0.96512        23.21183        -0.79988
H         -1.06219        25.14981        -0.42596
H         -1.03332        27.57876        -0.28214
H         -0.98253        29.46716        -0.45600
H         -0.96906        31.88762        -0.45316
H         -1.01587        33.78786        -0.14492
H         -0.95406        36.23395        -0.33804
H          0.28993        38.35089        -0.34200
H          3.72443         2.32935        -0.39336
H          2.44704        39.57232        -0.30148
H          6.15588         2.32290        -0.22527
H          4.88193        39.53823        -0.41676
H          8.60460         2.32681        -0.21049
H          7.34891        39.52757        -0.47707
H         11.16741         2.26381         0.06493
H          9.81100        39.52108        -0.48625
H         13.54794         2.29452         0.10588
H         12.26241        39.52317        -0.45031
H         16.12722         2.49360         0.26609
H         14.69225        39.54918        -0.51767
H         18.31830         2.22681        -0.59889
H         17.17864        39.59619        -0.79345
H         20.43366         3.38234        -0.22168
H         21.72799         5.58540         0.03200
H         21.79215         8.01950        -0.09379
H         21.86371         9.91002         0.11675
H         21.90262        12.31615         0.29398
H         22.02650        14.25974         0.09275
H         22.04825        16.67406         0.34541
H         22.02450        18.58885         0.52907
H         22.01995        21.00499         0.80297
H         21.99333        22.94317         0.98117
H         22.00609        25.36322         1.01983
H         22.02806        27.32544         0.77121
H         22.01085        29.73839         0.42747
H         21.98895        31.65616         0.11148
H         21.95325        34.07663        -0.04704
H         21.91400        36.01054        -0.67225
H         21.79430        38.46595        -0.92544
H         19.61461        39.65367        -0.88072
