         349
 CSIRO Nanostructure Databank - Neutral Graphene Oxide Data Set
C          1.75595         2.48175         3.23218
C          1.57457         3.73671         2.61318
C          2.97300         1.82736         3.18687
C          2.61124         4.37121         1.92305
C          1.29091         6.45093         1.45538
C          1.21910         7.76813         0.95209
C          2.44397         5.68224         1.33178
C          2.33598         8.44975         0.45662
C          1.02153        10.47823        -0.20219
C          0.99400        11.75172        -0.75551
C          2.26106         9.84421         0.01682
C          2.18319        12.48611        -0.87288
C          0.99645        15.68575        -0.92557
C          1.02126        16.98586        -0.28666
C          2.06948        14.84856        -0.86240
C          2.20890        17.51012         0.14796
C          2.41020        18.90727         0.48623
C          4.07106         2.38794         2.47732
C          3.88915         3.67513         1.81307
C          5.33046         1.76636         2.48675
C          4.95773         4.22513         1.13400
C          3.57784         6.30982         0.62216
C          3.59853         7.77636         0.41434
C          4.86831         5.56948         0.53315
C          4.78365         8.42576         0.04038
C          3.45833        10.56920        -0.19408
C          3.42684        11.95657        -0.46878
C          4.71988         9.81595        -0.53411
C          4.63775        12.77274        -0.10585
C          3.23643        15.19091         0.04286
C          3.42613        16.69100        -0.13576
C          4.55798        14.29156         0.04950
C          4.75075        17.32805        -0.08639
C          3.63740        19.46287         0.62968
C          4.90435        18.64475         0.64489
C          6.42128         2.26283         1.73343
C          6.11765         3.34338         0.72742
C          7.67454         1.66307         1.72843
C          7.33904         4.11316         0.21597
C          6.14620         6.38130         0.56459
C          6.04393         7.76974        -0.00569
C          7.29414         5.59994        -0.02074
C          7.22006         8.44622        -0.38105
C          6.00372        10.58421        -0.40662
C          6.01953        12.02336         0.04045
C          7.19723         9.89899        -0.50718
C          7.24949        12.78505        -0.43700
C          5.92773        14.99847         0.04545
C          5.97360        16.47290        -0.26739
C          7.23545        14.25497        -0.18307
C          7.27640        17.18999        -0.35428
C          6.16416        19.36118         0.24029
C          7.31316        18.65724        -0.08276
C          8.79580         2.20725         1.02961
C          8.68510         3.51211         0.37372
C         10.00596         1.52007         0.95890
C          9.79295         4.17853        -0.07839
C          8.52817         6.35585        -0.30300
C          8.48482         7.74089        -0.48477
C          9.69393         5.54855        -0.63862
C          9.70150         8.48114        -0.77465
C          8.45316        10.62277        -0.67348
C          8.42145        12.09220        -0.69984
C          9.64315         9.92575        -0.84688
C          9.70770        12.79737        -0.80485
C          8.47054        15.03481        -0.47611
C          8.53327        16.40144        -0.38281
C          9.66464        14.29965        -1.04706
C          9.78187        17.14888        -0.57088
C          8.57268        19.29631        -0.12314
C          9.78890        18.59537        -0.33645
C         11.17853         2.12658         0.41914
C         11.17240         3.62878         0.24243
C         12.35231         1.42847         0.24204
C         12.24178         4.12076        -0.76128
C         11.02113         6.34594        -0.91997
C         10.93893         7.82097        -0.88622
C         12.26308         5.63220        -0.70746
C         12.17232         8.56333        -1.00628
C         10.87294        10.67094        -1.31854
C         10.89476        12.11508        -0.86724
C         12.18177         9.93779        -1.13285
C         12.24929        12.78556        -0.61421
C         10.96422        14.96322        -0.56620
C         10.95951        16.46271        -0.76259
C         12.20031        14.24644        -1.14133
C         12.25379        17.14466        -0.81317
C         10.99654        19.26405        -0.12724
C         12.27987        18.64810        -0.41224
C         13.58639         2.08638        -0.11812
C         13.57740         3.47999        -0.45369
C         14.79432         1.38897        -0.06245
C         14.77624         4.16863        -0.63206
C         13.51853         6.36018        -0.61428
C         13.47356         7.85277        -0.87776
C         14.78837         5.61269        -0.82027
C         14.67288         8.46841        -1.54228
C         13.41466        10.68580        -1.31905
C         13.43732        12.04384        -1.19031
C         14.70435         9.99224        -1.75536
C         14.69185        12.80319        -1.60185
C         13.48425        15.00079        -0.89622
C         13.49959        16.35624        -0.65921
C         14.72731        14.29715        -1.24474
C         14.73562        17.05283        -0.34601
C         13.51421        19.14632         0.19293
C         14.69100        18.42566         0.17850
C         16.02795         2.04617        -0.31455
C         16.02225         3.45517        -0.58304
C         17.25787         1.35917        -0.27982
C         17.24081         4.11972        -0.84767
C         15.95425         6.28030        -1.09194
C         15.96392         7.71399        -1.49811
C         17.19789         5.51889        -1.29314
C         17.24624         8.47641        -1.42688
C         15.89144        10.59573        -0.96579
C         15.97232        12.09349        -1.17399
C         17.20619         9.87609        -1.22377
C         17.16816        12.75500        -0.89748
C         16.03555        15.01297        -0.93904
C         15.93633        16.37396        -0.37769
C         17.26062        14.19770        -0.74124
C         17.18175        17.06595        -0.02432
C         15.87944        18.99514         0.75464
C         17.10683        18.35309         0.70483
C         18.47733         2.04340        -0.44654
C         18.47770         3.44856        -0.74732
C         19.71762         1.37698        -0.24504
C         19.72411         4.17371        -0.79204
C         18.51795         6.28784        -1.41117
C         18.47658         7.76296        -1.35566
C         19.75236         5.58652        -1.02883
C         19.72012         8.44125        -1.30125
C         18.40950        10.60904        -1.03058
C         18.39135        11.98121        -0.73691
C         19.69298         9.92063        -1.34528
C         19.62774        12.65261        -0.27904
C         18.43802        14.82312        -0.31468
C         18.45568        16.28801        -0.03190
C         19.64506        14.10821        -0.07265
C         19.54250        16.76167         0.91962
C         18.31481        18.93790         1.17564
C         19.54270        18.26411         1.12699
C         20.90570         2.09630        -0.19490
C         20.91581         3.48790        -0.44465
C         22.15838         1.40958         0.28938
C         22.14352         4.27600        -0.06641
C         20.97375         6.32464        -0.98488
C         20.94197         7.74937        -1.21438
C         22.19527         5.65006        -0.68605
C         22.22580         8.46869        -1.42159
C         20.98745        10.66279        -1.24388
C         20.97458        11.96490        -0.51288
C         22.28744         9.94088        -1.26074
C         22.22055        12.74751        -0.54100
C         20.86460        14.83080         0.15367
C         20.85223        16.17096         0.48445
C         22.21340        14.07706         0.19882
C         22.03110        17.08534         0.28020
C         20.75313        18.92601         1.40437
C         22.00917        18.34658         1.11332
C         23.43009         2.10503        -0.12074
C         23.42724         3.50009        -0.23904
C         24.63943         1.39466        -0.21506
C         24.65523         4.20195        -0.32029
C         23.44867         6.30305        -0.73614
C         23.51709         7.69005        -1.25112
C         24.64079         5.63782        -0.40671
C         24.81289         8.43413        -1.13273
C         23.45143        10.66853        -1.13283
C         23.39430        12.11400        -0.88143
C         24.78582        10.00214        -1.14931
C         24.67300        12.87145        -0.84840
C         23.35209        15.00635        -0.24840
C         23.36377        16.37567         0.31294
C         24.65762        14.34593        -0.56648
C         24.51995        17.07311         0.48381
C         23.21231        19.01099         1.34274
C         24.47934        18.44788         0.98136
C         25.85736         2.07563        -0.36773
C         25.87427         3.48024        -0.36504
C         27.15314         1.31184        -0.52258
C         27.19924         4.19418        -0.48882
C         25.86541         6.39778         0.02072
C         25.96573         7.79703        -0.52238
C         27.16214         5.66048        -0.15356
C         27.15984         8.50375        -0.35357
C         25.96142        10.65841        -0.58257
C         25.94245        12.13182        -0.57058
C         27.15965         9.95374        -0.37644
C         27.05394        12.85223         0.10675
C         25.89478        15.03887        -0.17124
C         25.84090        16.54235        -0.06724
C         27.06710        14.34493         0.10753
C         27.03609        17.15361         0.61269
C         25.66446        19.15109         1.15320
C         26.95040        18.51453         1.02728
C         28.28581         1.98582         0.24370
C         28.26674         3.47432         0.34013
C         29.59284         1.29877         0.32558
C         29.55313         4.22416         0.69021
C         28.36333         6.35237        -0.01042
C         28.38467         7.80669        -0.05803
C         29.59557         5.64602         0.17982
C         29.60284         8.50269         0.04488
C         28.38214        10.63753        -0.06066
C         28.31731        12.07109         0.28997
C         29.60559         9.95151         0.06324
C         29.57595        12.86263         0.31555
C         28.24239        15.01871         0.55588
C         28.23400        16.42699         0.79079
C         29.45715        14.24416         0.88834
C         29.43408        17.10961         1.22059
C         28.12158        19.18723         1.40809
C         29.37150        18.51989         1.45295
C         30.76250         2.00896         0.34007
C         30.80510         3.43927         0.35958
C         32.00249         4.15002         0.25526
C         30.82917         6.32074         0.20150
C         30.84685         7.78263         0.16665
C         32.02550         5.55056         0.25899
C         32.02409         8.50800         0.32565
C         30.85495        10.65307         0.25930
C         30.88504        12.14607         0.28429
C         32.02324         9.91805         0.38359
C         32.07411        12.91527         0.74015
C         30.72532        14.95174         1.27855
C         30.68429        16.43859         1.36184
C         32.00550        14.20808         1.11026
C         31.83279        17.17800         1.65340
C         30.55997        19.23235         1.77280
C         31.77073        18.57059         1.84818
O         12.39686        18.18097        -1.80930
O         15.48813        14.99193        -2.30492
O          4.01186        17.26601        -1.34841
O          4.02712         5.63040        -0.65030
O         30.30142        12.76549        -0.94458
O         18.15494        17.13302        -1.16180
O          4.42223        13.41608         1.20102
O          2.07825        13.67919        -1.60313
O         15.14391         7.79934        -2.75165
O         22.93236         7.87373        -2.57232
O         10.19037         5.73710        -1.99745
O         17.83462         5.73237        -2.59381
O          6.52996        16.80421        -1.57983
O         25.10789         9.20583        -2.32386
O         25.62673        12.61460        -1.93262
O          7.02594         4.65812        -1.11367
O         27.40389        12.30847         1.42214
O         20.32160        11.88232         0.77945
O         23.82478        15.01012        -1.62517
O         22.41534        13.74822         1.53130
O         13.67982         7.37023         0.48414
O         27.78226         2.66791         1.45965
O         20.30591        10.57693        -2.53629
O          6.73879        14.61425         1.19429
O         29.85670        14.32523         2.30009
O         15.57502        10.36033         0.44373
H         16.25534        10.80643         0.99100
O         19.18309        16.17630         2.21336
H         20.00560        15.89822         2.66966
O         14.59304        12.79250        -3.06181
H         15.29050        13.40085        -3.40143
O         25.68673         6.54088         1.49276
H         26.51615         6.92222         1.85423
O         10.99027        14.81995         0.88977
H         10.13249        15.15411         1.23343
O          6.44418         6.52534         1.99374
H          7.03199         7.30162         2.11114
O         27.63817         4.10739        -1.87868
H         27.51447         3.17137        -2.17589
O         12.07746        14.15558        -2.58491
H         12.88113        13.69172        -2.94244
O         21.90497        17.54368        -1.11268
H         22.67829        18.11355        -1.31160
O         29.57457         4.37005         2.14964
H         29.06280         3.60301         2.50363
O          6.26311        11.88275         1.47678
H          6.26259        12.80080         1.84723
O         12.50227        12.73579         0.80992
H         11.84894        13.32390         1.25958
O         21.99430         4.47768         1.39164
H         21.97083         3.57709         1.79589
O         11.88957         3.66233        -2.08761
H         11.16343         4.24522        -2.42337
O          4.56761         9.60166        -1.99666
H          3.92528         8.87036        -2.12540
O          5.60168         2.61248        -0.42988
H          5.57898         3.25662        -1.17545
O         25.85043        17.03635        -1.45779
H         25.16199        16.51350        -1.93741
O         22.10893         1.46107         1.73865
H         22.96660         1.13475         2.08271
O          2.69883        15.12534         1.39070
H          2.95641        14.25279         1.77336
O         11.54172         4.20907         1.52801
H         11.00297         3.77501         2.22257
O          9.48562        14.43863        -2.47615
H         10.35794        14.26640        -2.91112
O          5.13316        18.24175         2.04611
H          5.09319        19.04920         2.60063
O         14.90553        10.25616        -3.14375
H         15.14428         9.40431        -3.58158
O         27.49568         1.28928        -1.92442
H         28.34775         0.81641        -2.02675
O         10.73279        10.76072        -2.78462
H          9.88952        11.22527        -2.97627
H          0.91140         2.02772         3.76930
H          0.58815         4.21481         2.68670
H          3.09996         0.85784         3.68963
H          0.39966         6.04199         1.95130
H          0.25574         8.28998         1.02982
H          0.08007         9.93462        -0.05027
H          0.04850        12.20844        -1.07406
H          0.11526        15.39738        -1.51366
H          0.09531        17.57746        -0.24836
H          1.51592        19.54671         0.55383
H          5.48118         0.87822         3.11971
H          3.72776        20.53958         0.84271
H          7.83089         0.74349         2.31349
H          6.24231        20.44386         0.43075
H         10.06129         0.48307         1.32334
H          8.62308        20.37570         0.08494
H         12.38052         0.34892         0.45588
H         10.98028        20.27881         0.29770
H         14.79633         0.31853         0.19042
H         13.48463        20.12324         0.69895
H         17.26959         0.28016        -0.06651
H         15.80352        19.98732         1.22467
H         19.71897         0.29998        -0.02116
H         18.29425        19.98809         1.50717
H         22.16838         0.33136        -0.03744
H         20.72010        19.96549         1.76952
H         24.63185         0.29539        -0.15560
H         23.19937        19.99372         1.83954
H         27.02417         0.25176        -0.16357
H         25.63039        20.18833         1.51886
H         29.61240         0.19956         0.27406
H         28.07173        20.25082         1.68517
H         31.72024         1.46589         0.30854
H         32.95025         3.59854         0.15803
H         33.00107         6.05345         0.21926
H         32.98796         7.99104         0.42344
H         32.98523        10.43086         0.51922
H         33.05953        12.42781         0.69749
H         32.93926        14.73219         1.36326
H         32.80275        16.67335         1.75889
H         30.50346        20.31557         1.95125
H         32.68999        19.12328         2.08592
