         638
 CSIRO Nanostructure Databank - Neutral Graphene Oxide Data Set
C         23.48863        70.05366        -2.74196
C         23.59560        71.43766        -2.96664
C         22.44801        72.21143        -3.31523
C         23.73569        74.26671        -3.20005
C         22.53039        73.58779        -3.44762
C         25.78290        65.73728        -1.70998
C         25.78785        67.13328        -1.96210
C         24.61554        67.87276        -2.25425
C         25.91410        69.95240        -2.47317
C         24.63837        69.27566        -2.46566
C         26.01916        71.38780        -2.47673
C         24.85369        72.11985        -2.74902
C         26.09558        74.27290        -2.51310
C         24.89649        73.56871        -2.82191
C         28.01474        61.40424        -0.74076
C         28.07995        62.90525        -0.96219
C         26.94551        63.62423        -1.25194
C         28.22756        65.75731        -1.32365
C         26.97269        65.04817        -1.45239
C         28.29149        67.13347        -1.62568
C         27.07378        67.78942        -2.02198
C         28.82088        70.17955        -1.89107
C         27.04331        69.11481        -2.49561
C         28.50796        71.54258        -1.57693
C         27.12975        72.13719        -1.72482
C         28.35626        74.33542        -1.54049
C         27.22767        73.62620        -1.99884
C         30.52369        57.10920        -0.72108
C         30.43817        58.54343        -0.61952
C         29.36031        59.25068        -1.07058
C         30.51670        61.43179        -0.51016
C         29.33989        60.75216        -1.17762
C         30.51476        62.85633        -0.44507
C         29.32892        63.59311        -0.77208
C         30.57336        65.67613        -0.47293
C         29.38530        65.00810        -0.87060
C         30.67101        67.13833        -0.65476
C         29.56927        67.88528        -1.34859
C         30.40702        70.04111        -0.04683
C         29.58338        69.36518        -1.12031
C         30.58949        71.52017        -0.32042
C         29.48849        72.24634        -0.89300
C         30.61318        74.36208        -0.45616
C         29.47145        73.69761        -0.91562
C         33.06234        52.90667        -0.93916
C         32.99958        54.30530        -0.57980
C         31.79303        54.99750        -0.62754
C         32.91708        57.16098        -0.13846
C         31.70699        56.42020        -0.45668
C         32.87728        58.53148        -0.00080
C         31.54882        59.23462         0.13813
C         32.82938        61.39606         0.29968
C         31.63546        60.71990        -0.09253
C         32.86739        62.81339         0.31547
C         31.69262        63.54164        -0.03048
C         32.87414        65.64858         0.49546
C         31.69880        64.97005        -0.00358
C         32.78909        67.09759         0.79163
C         31.62094        67.86372         0.25286
C         32.83661        70.00426         0.63428
C         31.71231        69.33529         0.20093
C         32.87066        71.46437         0.61723
C         31.71613        72.19356         0.12535
C         32.92104        74.31003         0.40566
C         31.75647        73.64713         0.02651
C         35.56002        48.76167        -1.97235
C         35.54029        50.19598        -1.51686
C         34.33679        50.84896        -1.39353
C         35.52893        52.85549        -0.48619
C         34.25080        52.22278        -0.98265
C         35.46060        54.35949        -0.38976
C         34.23674        54.99916        -0.30324
C         35.44026        57.17659        -0.06414
C         34.17936        56.40895         0.22792
C         35.35905        58.61776        -0.09395
C         34.07656        59.28554         0.23617
C         35.27611        61.32753         1.02507
C         34.04499        60.64544         0.48671
C         35.27274        62.82907         0.92868
C         34.07589        63.52131         0.67762
C         35.12580        65.61720         1.61582
C         34.01998        64.95383         0.81873
C         35.17401        67.13285         1.48289
C         34.01948        67.84960         1.11845
C         35.22739        69.96874         1.33312
C         34.03019        69.26735         1.04405
C         35.24312        71.42182         1.30753
C         34.03192        72.14520         0.96953
C         35.21950        74.28884         1.23971
C         34.07679        73.60407         0.88070
C         37.85814        44.42336        -0.90650
C         37.94512        45.91300        -1.18332
C         36.79684        46.63821        -1.49146
C         38.00663        48.75262        -1.31112
C         36.82139        48.04018        -1.57034
C         38.00147        50.20636        -1.31289
C         36.80579        50.88303        -1.34230
C         38.00584        53.01178        -0.70026
C         36.75388        52.39140        -1.27781
C         37.94747        54.38457        -0.32293
C         36.69562        55.07882        -0.25387
C         37.93271        57.21848        -0.10472
C         36.67851        56.50449        -0.15425
C         37.99988        58.73317        -0.24974
C         36.65844        59.44063        -0.06521
C         37.77086        61.38341         1.02533
C         36.59549        60.73589         0.58738
C         37.70328        62.80310         1.34667
C         36.49315        63.49961         1.22589
C         37.56883        65.53874         2.23676
C         36.50144        65.01887         1.27314
C         37.57481        67.08117         2.20831
C         36.35497        67.82826         1.80865
C         37.66351        69.96359         1.77147
C         36.40690        69.24713         1.67809
C         37.67333        71.41779         1.69421
C         36.42016        72.11631         1.56888
C         37.69151        74.28237         1.60307
C         36.38845        73.59530         1.87072
C         40.46925        40.26782        -1.80156
C         40.42472        41.61586        -1.52449
C         39.17095        42.34445        -1.37702
C         40.42630        44.47131        -1.26414
C         39.14462        43.68377        -1.15775
C         40.37956        45.88664        -0.72859
C         39.16340        46.61539        -0.96534
C         40.41292        48.73705        -0.66241
C         39.19632        48.03720        -0.99107
C         40.47303        50.15853        -0.71815
C         39.32357        50.94696        -1.32208
C         40.42317        53.01955        -0.38168
C         39.22724        52.34313        -0.73681
C         40.40138        54.39164        -0.08825
C         39.15890        55.09406        -0.09617
C         40.43714        57.28324         0.02025
C         39.12679        56.52335        -0.00238
C         40.27781        58.61166         0.72121
C         39.11186        59.32170         0.59084
C         40.23402        61.38311         1.36672
C         39.00912        60.68967         1.04528
C         40.19988        62.80615         1.58979
C         38.94576        63.52140         1.62652
C         40.15105        65.65030         2.31752
C         38.90745        64.86993         1.96158
C         40.04656        66.99590         1.55943
C         38.87577        67.81401         2.05978
C         40.13795        69.93511         1.77239
C         38.87322        69.26553         1.79519
C         40.16722        71.42463         2.02283
C         38.87179        72.12507         1.70406
C         40.13411        74.26124         1.45137
C         38.89343        73.57998         1.57235
C         42.98239        36.00292        -1.95338
C         42.98015        37.41744        -1.90854
C         41.75496        38.16374        -2.00446
C         42.94343        40.27396        -1.60976
C         41.71708        39.54519        -1.83736
C         42.91278        41.59992        -1.20484
C         41.65262        42.31890        -1.18293
C         42.78787        44.31013        -0.26372
C         41.61334        43.65384        -0.84724
C         42.74821        45.78763        -0.00853
C         41.52544        46.55946        -0.34696
C         42.75430        48.68572         0.12061
C         41.56460        48.00134        -0.25449
C         42.81482        50.09416         0.03061
C         41.65146        50.82036        -0.37618
C         42.87860        52.96102         0.19535
C         41.74632        52.31550        -0.57006
C         42.84006        54.32547         0.48619
C         41.62627        55.09399         0.28300
C         42.77244        57.13635         1.02553
C         41.60544        56.46057         0.51572
C         42.74062        58.50973         1.32051
C         41.41355        59.19064         1.52616
C         42.73436        61.43468         1.26595
C         41.44343        60.68628         1.38750
C         42.64989        62.80940         1.86055
C         41.42512        63.47685         1.89465
C         42.62944        65.60016         2.00015
C         41.43438        64.92045         2.02786
C         42.65075        67.04335         1.69740
C         41.35754        67.77902         1.49162
C         42.61764        69.93808         1.71497
C         41.34316        69.24763         1.68327
C         42.66177        71.33426         1.55729
C         41.37517        72.03949         1.35295
C         42.68028        74.21480         1.15560
C         41.37675        73.56124         1.16716
C         45.44447        33.09785        -1.78952
C         44.11957        33.76900        -2.00417
C         45.40374        35.95421        -1.72772
C         44.17038        35.27396        -1.87772
C         45.41200        37.36699        -1.68240
C         44.22193        38.09573        -1.77985
C         45.41146        40.24583        -1.18143
C         44.25754        39.60132        -1.90370
C         45.37160        41.55352        -0.76813
C         44.12661        42.30242        -0.82217
C         45.26861        44.26754         0.13889
C         44.07961        43.60047        -0.33332
C         45.16450        45.68078         0.61911
C         44.05985        46.54410         0.01640
C         45.22125        48.58674         0.81076
C         43.87651        47.88537         0.76700
C         45.31684        49.96098         0.19989
C         44.05597        50.79665         0.28854
C         45.28240        52.91181         0.79103
C         44.08306        52.19764         0.40302
C         45.25087        54.26204         1.13935
C         44.01303        55.00802         0.98976
C         45.11517        57.04324         1.96461
C         43.97088        56.37579         1.24722
C         45.17663        58.53522         1.75421
C         43.95573        59.23682         1.59311
C         45.17114        61.35120         1.83394
C         43.97069        60.65797         1.64068
C         45.16173        62.86595         1.84031
C         43.87442        63.40745         2.49479
C         45.16470        65.65809         2.17463
C         43.87394        64.97986         2.58900
C         45.14556        67.05969         1.96672
C         43.89259        67.81146         1.90572
C         45.14034        69.94630         2.00220
C         43.84937        69.18880         1.82202
C         45.11416        71.39005         1.54322
C         43.89581        72.05520         1.40618
C         45.12316        74.18651         1.08347
C         43.87670        73.50209         1.18477
C         46.60391        33.76959        -1.64457
C         47.84922        35.87563        -1.37441
C         46.66038        35.22341        -1.61212
C         47.91409        37.30870        -1.18511
C         46.72377        38.11876        -1.67002
C         47.90091        40.14987        -0.73629
C         46.57896        39.37274        -0.79650
C         47.73512        41.49215        -0.07198
C         46.55553        42.19494        -0.18209
C         47.75406        44.36650         0.35293
C         46.46745        43.59198         0.20998
C         47.67955        45.69580         1.08107
C         46.37007        46.39290         1.15467
C         47.64351        48.54886         1.30478
C         46.38097        47.88671         1.09447
C         47.74399        49.93648         1.13323
C         46.60005        50.69843         0.56716
C         47.74761        52.83890         1.39072
C         46.57080        52.18881         0.79374
C         47.71081        54.22799         1.66202
C         46.45801        54.96437         1.55155
C         47.63215        57.08509         2.06129
C         46.43911        56.34097         1.79829
C         47.64125        58.49085         2.04903
C         46.39539        59.23226         1.88588
C         47.65742        61.39641         1.99257
C         46.40033        60.65553         1.90477
C         47.67193        62.77076         2.15546
C         46.39256        63.48216         2.53007
C         47.60715        65.65331         1.97853
C         46.40021        64.97482         2.22824
C         47.56106        67.02036         1.59883
C         46.35154        67.72907         1.65514
C         47.62839        69.89878         1.64413
C         46.29231        69.20725         1.31253
C         47.58089        71.38417         1.31158
C         46.36467        72.07200         1.34064
C         47.57761        74.21002         0.95682
C         46.35199        73.51335         1.11853
C         48.98918        37.89264        -0.57440
C         50.27809        40.06750        -0.00514
C         48.97451        39.30300        -0.02301
C         50.25325        41.39379         0.37646
C         48.93657        42.07064         0.55663
C         50.18218        44.26541         1.02727
C         48.91156        43.53490         0.84707
C         50.11870        45.60330         1.35975
C         48.84442        46.32458         1.42516
C         50.10366        48.49489         1.78622
C         48.78656        47.76480         1.93466
C         50.13896        49.89268         1.70474
C         48.92773        50.64780         1.47431
C         50.11456        52.76721         1.99398
C         48.93754        52.08617         1.59455
C         50.13275        54.18764         2.10770
C         48.89684        54.89481         2.02500
C         50.15851        57.04179         2.11402
C         48.87987        56.33330         2.45052
C         50.18927        58.52584         2.33967
C         48.86979        59.23771         2.09293
C         50.16975        61.33469         1.93173
C         48.89008        60.62376         1.98808
C         50.18113        62.79075         1.95655
C         48.96328        63.46810         2.54678
C         50.13645        65.66055         1.71187
C         48.94021        65.05068         2.43307
C         50.10974        67.17187         1.56283
C         48.77046        67.63922         0.92573
C         49.96530        69.94163         0.64545
C         48.71401        69.17561         0.87854
C         50.00494        71.39073         0.90860
C         48.81284        72.08776         1.06066
C         50.02673        74.22671         0.64288
C         48.81731        73.54327         0.92405
C         51.43663        42.16485         0.59303
C         52.64413        44.23659         1.14616
C         51.43207        43.52901         0.94887
C         52.65603        45.59361         1.53226
C         51.36034        46.24737         1.81994
C         52.62966        48.46972         1.94004
C         51.34765        47.77205         2.03044
C         52.61674        49.88537         1.97245
C         51.37962        50.57653         1.91208
C         52.65281        52.72988         2.46931
C         51.34489        52.00233         2.24489
C         52.66593        54.25038         2.59962
C         51.36379        54.91247         2.20199
C         52.63121        57.05477         1.92255
C         51.35887        56.33600         2.07649
C         52.64072        58.44426         1.76446
C         51.32043        59.15755         1.53453
C         52.65098        61.37405         1.91804
C         51.34746        60.64572         1.76269
C         52.58047        62.79058         1.40153
C         51.31246        63.48748         1.56632
C         52.39126        65.58521         0.67967
C         51.23418        64.93502         1.35259
C         52.45155        67.06151         0.60094
C         51.27390        67.75058         0.78329
C         52.51655        69.90127         0.26963
C         51.21439        69.16619         0.40463
C         52.55632        71.35782         0.59101
C         51.28792        72.11312         0.86384
C         52.47150        74.18817         0.17406
C         51.28036        73.56551         0.56816
C         53.84205        46.32615         1.65987
C         55.06717        48.46871         1.75722
C         53.85567        47.74402         1.83677
C         55.09177        49.88278         1.80216
C         53.86441        50.60812         1.98466
C         55.08017        52.73262         1.83455
C         53.89071        52.01524         2.09284
C         55.06588        54.17494         1.76540
C         53.87918        54.90323         1.98333
C         55.07676        56.99860         1.54259
C         53.85816        56.31037         1.83019
C         55.07518        58.42540         1.45253
C         53.86831        59.15031         1.58070
C         54.99861        61.28189         1.08711
C         53.85874        60.60024         1.43775
C         55.00784        62.72157         0.91251
C         53.73854        63.42638         1.01178
C         54.93274        65.59910         0.45087
C         53.68736        64.82894         0.54325
C         54.93528        66.97648         0.26854
C         53.70217        67.72733         0.30791
C         54.98579        69.84830         0.16300
C         53.77297        69.13896         0.31760
C         55.04911        71.35143         0.32321
C         53.74724        72.08126         0.15296
C         54.92251        74.12686        -0.42065
C         53.71634        73.47664        -0.00522
C         56.29414        50.60918         1.62583
C         57.48849        52.73637         1.25927
C         56.29711        52.01482         1.57842
C         57.50314        54.12644         1.17103
C         56.27836        54.86850         1.43919
C         57.59813        56.99941         1.30356
C         56.28313        56.26548         1.37910
C         57.43914        58.39524         0.77446
C         56.29226        59.09567         1.04278
C         57.40545        61.27145         0.35713
C         56.33105        60.59201         1.14457
C         57.40890        62.66224         0.28263
C         56.18341        63.39187         0.59324
C         57.32367        65.52837        -0.14727
C         56.24153        64.89388         0.69388
C         57.37592        67.00830        -0.15105
C         56.18401        67.70354         0.04805
C         57.36504        69.82252        -0.48701
C         56.18315        69.13705        -0.05413
C         57.32975        71.24875        -0.72069
C         56.18323        71.99764        -0.41669
C         57.26171        74.03065        -1.25859
C         56.11518        73.40039        -0.68916
C         58.67604        54.82859         0.74442
C         59.86473        56.91434         0.19019
C         58.72909        56.22217         0.66960
C         59.86895        58.31267        -0.05325
C         58.56600        59.00998         0.04347
C         59.80191        61.20574        -0.43515
C         58.54476        60.51438        -0.15652
C         59.79554        62.61899        -0.45654
C         58.60042        63.32218        -0.15429
C         59.86997        65.51605        -0.40424
C         58.56240        64.76660        -0.43254
C         59.74952        66.94215        -0.87376
C         58.56448        67.66630        -0.59787
C         59.66591        69.73544        -1.38088
C         58.52717        69.08478        -0.81116
C         59.62103        71.13989        -1.63768
C         58.46562        71.89289        -1.30816
C         59.57627        73.92901        -2.15594
C         58.41932        73.30534        -1.56930
C         60.98149        59.02615        -0.51576
C         62.12740        61.15178        -1.16178
C         60.97929        60.44880        -0.72621
C         62.13532        62.56395        -1.30527
C         60.97627        63.32643        -0.91912
C         62.10848        65.41582        -1.54995
C         60.98932        64.72667        -1.02622
C         62.07272        66.83803        -1.73439
C         60.87975        67.58284        -1.42752
C         61.93902        69.62914        -2.33975
C         60.82667        68.98548        -1.70923
C         61.83817        71.00703        -2.68888
C         60.72850        71.76730        -2.29383
C         61.85342        73.82064        -3.13240
C         60.68757        73.19657        -2.52392
C         63.27564        63.26751        -1.77775
C         64.44109        65.39628        -2.32981
C         63.27585        64.66424        -1.91394
C         64.43053        66.76590        -2.45569
C         63.21531        67.51759        -2.24479
C         64.31369        69.60427        -3.08173
C         63.14569        68.90179        -2.56925
C         64.21895        70.94478        -3.49456
C         62.85665        71.58954        -3.63334
C         63.98142        73.74259        -4.43587
C         62.88908        73.09815        -3.62317
C         65.73011        67.49324        -2.71006
C         66.70285        69.61709        -3.56314
C         65.57754        68.93402        -3.14086
C         66.63970        70.98606        -3.94108
C         65.37556        71.65463        -3.92688
C         66.46799        73.68085        -4.71923
C         65.30886        73.02337        -4.33531
C         67.80342        71.69395        -4.34387
C         67.71641        73.01993        -4.71902
O         51.94565        52.16353         3.62156
O         51.75335        69.52050        -0.92383
O         31.61132        67.38293         1.64636
O         51.25051        46.80646         3.16294
O         42.54742        44.88110         1.11025
O         42.12602        67.33727         0.31912
O         48.65704        42.58759         1.92070
O         41.18624        72.56383         0.04155
O         52.18094        71.68605         1.99228
O         28.21045        69.65051        -3.03117
O         48.94967        69.67972        -0.45506
O         52.76455        64.98328        -0.60632
O         35.89162        59.30555        -1.31786
O         57.58243        65.02904        -1.50117
O         45.37206        45.79668         2.06815
O         30.78230        67.46963        -2.08846
O         58.13928        59.56222        -1.24610
O         43.60166        65.36453         3.93101
O         38.29772        67.57397         3.38451
O         46.95894        51.59896        -0.53506
O         43.72076        62.90322         3.83212
H         43.64958        63.74347         4.38883
O         29.65188        69.92178         1.20838
H         30.23566        70.21192         1.94073
O         45.43032        49.63509        -1.24228
H         45.88430        50.40986        -1.65484
O         36.61898        52.88748        -2.63450
H         37.39437        52.56675        -3.14349
O         29.43226        61.04819        -2.60994
H         30.26710        60.65946        -2.94603
O         44.54502        39.84372        -3.35306
H         44.48131        40.81210        -3.50385
O         62.40157        71.22962        -4.99962
H         62.33103        70.25116        -5.03374
O         46.27254        63.30178         3.96509
H         47.17986        63.19340         4.33561
O         26.93870        60.83000        -1.47728
H         27.20236        60.85853        -2.42225
O         63.55355        73.71873        -5.81619
H         63.16175        72.82933        -5.97680
O         41.09088        58.91396         2.94745
H         40.31361        59.46416         3.18408
O         48.52618        47.70032         3.37264
H         49.31265        47.26502         3.77805
O         35.22056        61.03230         2.48020
H         35.74682        61.71953         2.94447
O         45.18307        63.31343         0.46521
H         44.49590        62.80366        -0.03121
O         36.16779        73.68431         3.34513
H         35.29668        73.27061         3.52786
O         46.04890        69.34330        -0.10140
H         46.77325        68.89963        -0.59267
O         42.07123        52.49236        -2.01006
H         42.18441        53.45516        -2.16667
O         50.22163        67.78391         2.87053
H         49.71345        67.22192         3.50766
O         50.98482        58.94387         0.13098
H         51.67386        59.37244        -0.41859
O         49.04559        65.56057         3.80979
H         48.18932        65.38413         4.25843
O         40.77006        57.59060        -1.37427
H         40.01348        58.12169        -1.73525
O         37.27491        65.12839         3.58680
H         37.90703        65.62160         4.16013
O         48.38547        40.46408        -2.06113
H         48.12293        39.72693        -2.67333
O         36.80508        43.79362        -1.63080
H         35.94857        44.14429        -1.31578
O         43.42648        47.63072         2.11272
H         44.01972        46.94034         2.50226
O         44.80272        56.87493         3.40146
H         45.53196        57.28997         3.91042
O         34.09895        56.25146         1.70234
H         33.30066        55.71319         1.89044
O         40.39548        71.60610         3.46137
H         39.62278        71.23222         3.93634
O         42.92409        61.71481        -0.19957
H         42.06412        62.03410        -0.55162
O         26.61136        72.06527        -0.33590
H         25.78665        72.59674        -0.30527
O         36.84292        65.50921        -0.04552
H         37.82354        65.55746        -0.12900
O         48.86174        56.33445         3.95233
H         49.54217        55.68729         4.24268
O         55.34780        71.55662         1.76782
H         54.49558        71.50135         2.25652
O         40.16139        65.88762         3.75411
H         41.05944        65.66902         4.09295
O         39.65992        51.14451        -2.73703
H         40.55761        51.56555        -2.75371
O         66.54707        66.77427        -3.64477
H         66.10025        66.78833        -4.51561
O         35.73890        52.36702         0.87353
H         35.01922        52.72141         1.43635
O         40.61887        44.68192        -2.72085
H         39.78229        45.05700        -3.07154
O         56.75992        60.80922         2.56217
H         57.32493        60.05000         2.82724
O         56.64156        65.18673         2.07657
H         56.08568        64.64676         2.67754
O         60.19365        65.59197         1.02983
H         61.04876        66.06356         1.11846
O         43.13375        33.22051        -1.11027
H         43.39792        33.44723        -0.19522
O         31.19741        59.10685         1.56072
H         31.25116        58.15515         1.79109
O         39.67180        66.64485         0.19460
H         40.51115        66.65390        -0.33035
O         44.43979        46.83601        -1.34877
H         44.77551        47.76500        -1.40688
O         48.12651        44.71684        -1.02745
H         47.35450        45.14412        -1.45618
O         46.22344        38.86434         0.51313
H         46.38715        39.56988         1.17501
O         48.74525        67.14883        -0.43041
H         49.03071        67.89338        -1.01493
O         48.59144        39.20006         1.38549
H         49.28441        38.68476         1.84838
O         45.39120        69.97889         3.44600
H         44.60771        70.37902         3.87911
O         34.39578        48.05821        -1.52304
H         34.35961        48.12430        -0.54687
O         52.79594        54.54123         4.03476
H         52.35782        53.79133         4.50385
O         38.40110        58.98064        -1.63846
H         37.56775        58.96475        -2.16856
O         47.97230        69.73499         3.03300
H         47.17716        69.96091         3.57350
O         58.01725        57.19977         2.71240
H         58.10717        56.30877         3.11447
O         52.84394        61.49884         3.37868
H         52.67945        60.61435         3.77261
O         46.98219        38.48634        -3.05808
H         46.15831        38.92404        -3.40157
O         49.07639        63.14980         3.97981
H         49.89282        63.58185         4.31525
O         34.81839        65.30278         2.99531
H         33.94268        65.68848         3.20673
O         50.50324        58.70603         3.75324
H         49.87852        58.12768         4.25218
H         23.77153        75.36241        -3.28459
H         26.10211        75.36917        -2.61640
H         28.37964        75.42825        -1.67464
H         30.66295        75.46062        -0.50160
H         32.96858        75.40748         0.34223
H         35.23525        75.38772         1.17757
H         37.69635        75.37730         1.49553
H         40.15210        75.35806         1.53659
H         42.71162        75.31493         1.16338
H         45.11304        75.27630         0.93116
H         47.55081        75.30153         0.81859
H         49.98420        75.30739         0.43835
H         52.46105        75.27054        -0.02541
H         54.91068        75.21285        -0.59681
H         57.22767        75.11004        -1.47001
H         59.55849        75.01563        -2.32934
H         61.86691        74.91935        -3.21182
H         64.10696        74.81840        -4.14774
H         66.41322        74.73225        -5.03620
H         22.50059        69.57235        -2.78941
H         21.49089        71.69671        -3.48262
H         21.63761        74.16322        -3.73032
H         24.83075        65.18648        -1.72252
H         23.65427        67.34183        -2.31318
H         27.83360        61.19980         0.34735
H         25.98578        63.09568        -1.35336
H         29.64941        56.55339        -1.09329
H         28.52165        58.71687        -1.54598
H         32.13124        52.40672        -1.24827
H         30.87650        54.45150        -0.89708
H         35.51222        48.75552        -3.10012
H         33.40752        50.30018        -1.61178
H         37.63103        44.32897         0.20590
H         35.84030        46.12453        -1.66783
H         39.53635        39.71269        -1.98270
H         38.22865        41.77696        -1.40826
H         42.02898        35.46544        -2.06327
H         40.81420        37.61109        -2.14708
H         45.44242        31.99735        -1.77484
H         43.76540        33.51169        -3.04327
H         47.54793        33.21888        -1.50976
H         48.76217        35.28385        -1.20178
H         49.82680        37.24449        -0.26203
H         51.23919        39.55245        -0.16290
H         52.40928        41.65930         0.48900
H         53.60162        43.71435         1.00335
H         54.80097        45.81405         1.49290
H         56.01105        47.92081         1.62106
H         57.23454        50.06133         1.46630
H         58.40715        52.17011         1.04568
H         59.54144        54.23726         0.40772
H         60.76253        56.33318        -0.07287
H         61.92802        58.48596        -0.66848
H         63.03837        60.58748        -1.41136
H         64.18116        62.70138        -2.04285
H         65.37535        64.84792        -2.52240
H         66.30328        67.49016        -1.73857
H         67.66799        69.09114        -3.60505
H         68.77179        71.17329        -4.35019
H         68.61794        73.56725        -5.02783
