         732
 CSIRO Nanostructure Databank - Neutral Graphene Oxide Data Set
C         22.88458        24.92107        -1.02177
C         21.73093        25.64118        -0.94335
C         22.79002        27.48915         0.27274
C         21.67441        26.91520        -0.29148
C         22.82303        28.91293         0.62194
C         21.63531        29.62494         0.86355
C         22.88027        31.69868         1.12996
C         21.68093        30.97403         1.19834
C         22.90626        33.13436         1.61644
C         21.66517        33.92742         1.28157
C         22.89967        36.05499         1.32620
C         21.67803        35.27521         1.21114
C         22.88290        37.45625         1.23265
C         21.70223        38.22767         0.96789
C         22.98534        40.31283         0.68716
C         21.74646        39.58226         0.75888
C         23.03094        41.70503         0.32059
C         21.86490        42.50841         0.22506
C         23.18778        44.43172        -0.49866
C         21.95383        43.84108        -0.12880
C         23.23647        45.78764        -1.03966
C         22.09684        46.62248        -1.00253
C         23.00793        48.02289        -2.73640
C         22.00130        47.75590        -1.80513
C         25.46339        23.47772        -1.16078
C         25.40225        24.71873        -0.50081
C         24.06033        25.30929        -0.23334
C         25.29926        27.33831         0.78525
C         24.00273        26.66938         0.44576
C         25.32291        28.86468         0.82390
C         24.05273        29.61300         0.66115
C         25.32914        31.75395         0.48068
C         24.07167        31.01757         0.79635
C         25.26925        33.23150         0.67250
C         24.14185        33.88754         1.19243
C         25.38572        36.00044         1.22212
C         24.14876        35.31369         1.29860
C         25.44463        37.43236         1.47412
C         24.12571        38.22431         1.42639
C         25.44203        40.27240         0.79185
C         24.18740        39.63485         0.98175
C         25.48227        41.56357         0.24658
C         24.29218        42.31015         0.03780
C         25.62789        44.24775        -0.85419
C         24.36706        43.65479        -0.47167
C         25.68027        45.40996        -1.82634
C         24.36928        46.19373        -1.79079
C         26.24358        48.05654        -3.33021
C         24.15576        47.22491        -2.71319
C         26.46111        49.24889        -3.99772
C         27.87524        23.39928        -0.88717
C         26.66949        22.83194        -1.35422
C         27.85268        24.67798        -0.26285
C         26.59660        25.33866        -0.06049
C         27.75621        27.33578         0.87366
C         26.58019        26.66322         0.53472
C         27.76793        28.77401         1.01645
C         26.62652        29.52231         0.74494
C         28.00574        31.62069         0.59291
C         26.67313        30.97059         0.42531
C         28.19541        32.97910         0.26672
C         26.35307        34.04160         0.27736
C         27.87995        35.95421         0.84254
C         26.56087        35.34246         0.77017
C         27.89228        37.37963         1.05728
C         26.70194        38.11231         1.18985
C         27.98307        40.20189         0.88546
C         26.69268        39.60826         1.34484
C         28.03849        41.52377         0.25565
C         26.76076        42.19790        -0.12966
C         28.07831        44.30830        -0.55040
C         26.81693        43.62650        -0.49485
C         28.12668        45.65002        -1.06676
C         26.99020        46.23863        -1.70745
C         28.39799        48.23429        -2.22806
C         27.16416        47.48794        -2.38091
C         28.52448        49.56758        -2.78618
C         27.57468        50.04190        -3.67871
C         30.33006        20.64527        -1.56585
C         29.15225        21.35505        -1.49451
C         30.32665        23.28060        -0.54703
C         29.12007        22.67895        -0.99309
C         30.30905        24.61265         0.02299
C         29.08167        25.26907         0.19236
C         30.33920        27.24531         1.27210
C         29.02708        26.55872         0.92225
C         30.33277        28.72588         1.55686
C         29.02323        29.48527         1.38968
C         30.35694        31.61210         1.27085
C         29.11905        30.93041         1.11275
C         30.38677        33.04268         1.21893
C         29.22166        33.77622         0.80816
C         30.30411        35.93639         1.29647
C         29.11960        35.23238         0.90499
C         30.35121        37.35854         1.34436
C         29.14804        38.07132         1.17620
C         30.40925        40.22106         1.18144
C         29.16196        39.50137         1.06995
C         30.32018        41.70444         1.17320
C         29.22235        42.35219         0.46061
C         30.48877        44.43747         0.13017
C         29.24594        43.69081         0.03602
C         30.55052        45.72055        -0.45705
C         29.40503        46.34288        -1.03616
C         30.84567        48.34878        -1.73170
C         29.50415        47.65151        -1.58643
C         30.75722        49.85482        -1.75045
C         29.63381        50.42690        -2.38401
C         30.65926        52.62545        -2.17899
C         29.59594        51.82555        -2.57210
C         32.82949        19.19336        -1.88828
C         32.81049        20.49638        -1.33179
C         31.55230        21.21885        -1.13741
C         32.77195        23.14332        -0.11677
C         31.53249        22.53187        -0.62352
C         32.80099        24.59662         0.13490
C         31.57241        25.27799         0.33673
C         32.83321        27.29164         0.97794
C         31.60232        26.61620         0.81473
C         32.86763        28.67163         1.63580
C         31.59569        29.47448         1.47410
C         32.82040        31.64188         1.57304
C         31.59856        30.88565         1.47530
C         32.82122        33.05067         1.65111
C         31.58484        33.74091         1.51743
C         32.83524        35.96942         1.85012
C         31.49959        35.18975         1.70456
C         32.81745        37.42609         1.61550
C         31.60138        38.09653         1.50268
C         32.79762        40.31925         1.95353
C         31.58055        39.55029         1.46110
C         32.86229        41.74360         1.44705
C         31.62155        42.48595         1.28336
C         32.89831        44.50175         0.77951
C         31.66098        43.82196         0.69153
C         32.78517        45.98460         0.60873
C         31.92814        46.34832        -0.59803
C         32.97274        48.61650        -0.43549
C         31.89967        47.83999        -0.79827
C         32.99085        50.04980        -0.68928
C         31.82055        50.66612        -1.31004
C         32.90843        52.90940        -1.12484
C         31.79143        52.07685        -1.53711
C         32.98587        54.27249        -1.36136
C         35.26579        19.18187        -1.99190
C         34.02181        18.55196        -2.18636
C         35.27296        20.50625        -1.44457
C         34.04329        21.12508        -1.07455
C         35.32031        23.22039        -0.39724
C         34.08176        22.42484        -0.38259
C         35.30793        24.56168         0.01347
C         34.04370        25.25324         0.29410
C         35.34213        27.29750         0.90527
C         34.04239        26.61400         0.70295
C         35.32074        28.78174         1.13590
C         34.05441        29.49391         1.20772
C         35.34579        31.68668         1.34645
C         34.11767        30.89929         1.76236
C         35.34731        33.09114         1.46135
C         34.07848        33.81238         1.65949
C         35.31851        35.96132         1.26434
C         34.06675        35.19438         1.64760
C         35.28370        37.42882         1.62706
C         34.08741        38.14548         1.65847
C         35.31329        40.30388         1.63940
C         34.09019        39.57685         1.75101
C         35.30533        41.72294         1.47304
C         34.07828        42.42880         1.34698
C         35.31817        44.62883         1.42306
C         34.09479        43.87333         1.16108
C         35.20501        46.09417         1.34436
C         34.10230        46.69290         0.65967
C         35.25055        48.83847         0.53964
C         34.10890        48.03481         0.27580
C         35.28540        50.20869         0.18026
C         34.08072        50.81679        -0.33225
C         35.27178        53.03738        -0.21187
C         33.95225        52.30649        -0.21789
C         35.22712        54.46734        -0.35284
C         34.08240        55.05150        -0.91405
C         37.75244        16.46087        -2.81411
C         36.54730        17.12400        -2.63314
C         37.74722        19.18602        -2.19882
C         36.51691        18.49045        -2.28102
C         37.71348        20.62017        -1.85781
C         36.49477        21.21925        -1.28730
C         37.76795        23.24351        -0.60324
C         36.53572        22.55972        -0.77729
C         37.79058        24.59830        -0.19891
C         36.55662        25.27406         0.07392
C         37.80399        27.35323         0.44070
C         36.59141        26.64962         0.42787
C         37.79898        28.83262         0.48059
C         36.51875        29.57009         0.73943
C         37.77502        31.70753         0.90517
C         36.54601        31.01464         1.04794
C         37.77937        33.12183         1.07367
C         36.58190        33.79407         1.36753
C         37.79265        36.03472         1.36780
C         36.57838        35.25254         1.79854
C         37.80104        37.43035         1.47860
C         36.56921        38.13411         1.98379
C         37.78465        40.30132         1.50765
C         36.55424        39.59971         1.64413
C         37.80598        41.71502         1.38467
C         36.54642        42.48278         1.10126
C         37.85393        44.56984         1.64708
C         36.54437        43.94561         1.54287
C         38.06099        45.91613         2.03926
C         36.17672        46.98671         1.82520
C         37.42264        49.15639         1.60674
C         36.28931        48.32775         1.36530
C         37.64646        50.36363         0.92856
C         36.47095        50.95116         0.35396
C         37.67114        53.08602         0.38867
C         36.45927        52.36922         0.10204
C         37.49933        54.47217         0.54103
C         36.39993        55.22185         0.04904
C         37.73548        57.28717        -0.37121
C         36.52710        56.62388        -0.12230
C         40.24544        14.94607        -2.78417
C         40.24791        16.35428        -2.68169
C         38.98973        17.11490        -2.65361
C         40.24489        19.22531        -2.21502
C         38.98383        18.51311        -2.38359
C         40.25986        20.52875        -1.79016
C         39.02140        21.31509        -1.62764
C         40.30446        23.26972        -0.68680
C         39.04410        22.44600        -0.62165
C         40.29278        24.62706        -0.29093
C         39.04212        25.30480        -0.06340
C         40.29621        27.41959         0.31051
C         39.04858        26.68980         0.22167
C         40.31395        28.83039         0.58245
C         39.05779        29.57472         0.64971
C         40.30327        31.67794         0.67985
C         39.01174        30.95148         0.77793
C         40.32663        33.16111         0.60502
C         39.08776        33.88973         1.15489
C         39.99392        36.18844         0.46109
C         38.91615        35.37496         0.83811
C         40.21550        37.49924         0.93337
C         39.01287        38.15914         1.33303
C         40.27175        40.25256         1.36701
C         39.02585        39.58132         1.45118
C         40.25602        41.66684         1.39063
C         39.03966        42.38635         1.35191
C         40.27765        44.52241         1.15533
C         39.05429        43.83951         1.35714
C         40.31144        45.94675         1.11961
C         39.21127        46.66082         1.66162
C         40.29415        48.83081         1.06445
C         39.31977        48.08308         1.74997
C         40.19863        50.27289         0.80592
C         38.96382        51.01186         0.80732
C         40.18593        53.10688         0.17402
C         38.95410        52.42137         0.51952
C         40.25104        54.50577        -0.19681
C         39.26027        55.44585         0.17592
C         40.03629        57.16690        -1.45132
C         39.00364        56.67690        -0.45831
C         40.14812        58.66103        -1.51658
C         42.65773        14.88724        -2.62266
C         41.43731        14.22750        -2.76207
C         42.69930        16.28931        -2.51660
C         41.48511        17.01595        -2.53994
C         42.66334        18.99706        -1.57477
C         41.55749        18.52472        -2.54904
C         42.79781        20.51031        -1.59004
C         41.51812        21.28737        -1.59732
C         42.75560        23.25580        -0.68583
C         41.51482        22.62441        -0.97494
C         42.75804        24.61619        -0.28138
C         41.52942        25.32516        -0.15250
C         42.77452        27.40887         0.34044
C         41.52709        26.72637         0.16956
C         42.78330        28.79947         0.68061
C         41.53771        29.49031         0.77303
C         42.80880        31.65266         1.17143
C         41.49403        30.92479         1.25031
C         42.84471        33.03578         1.15643
C         41.66713        33.79795         0.82238
C         42.93092        35.94592         0.91878
C         41.86415        35.10844         0.45905
C         42.82691        37.36560         1.08250
C         41.53569        38.12160         1.05763
C         42.76367        40.26100         1.47078
C         41.52187        39.50789         1.31779
C         42.76462        41.63195         1.45982
C         41.51341        42.42971         1.65798
C         42.69741        44.48603         0.76668
C         41.52049        43.81470         1.06586
C         42.68763        45.91727         0.51915
C         41.48669        46.65943         0.76217
C         42.66231        48.76425         0.30694
C         41.46541        48.08144         0.66710
C         42.64957        50.18627         0.18104
C         41.39258        50.93710         0.33705
C         42.55985        52.88492        -0.72821
C         41.35843        52.31061         0.00511
C         42.61277        54.38406        -0.88811
C         41.40795        55.10830        -0.84860
C         42.55215        57.12479        -1.70409
C         41.36763        56.46757        -1.27545
C         42.51171        58.50339        -2.03095
C         41.32860        59.25890        -1.86229
C         45.22872        16.34826        -2.49218
C         43.98261        16.98422        -2.30816
C         45.18280        18.94008        -1.44324
C         43.98477        18.30833        -1.82360
C         45.14058        20.26490        -0.77954
C         43.96743        21.12353        -0.95326
C         45.23207        23.13544        -0.29513
C         43.98449        22.48214        -0.66472
C         45.22286        24.56950        -0.05100
C         44.01194        25.28658        -0.02940
C         45.24073        27.38632         0.40475
C         44.00809        26.69692         0.24252
C         45.24333        28.78612         0.72173
C         44.02618        29.46482         0.90883
C         45.31903        31.61615         1.26537
C         44.03995        30.85605         1.49963
C         45.31338        33.04219         1.32074
C         44.09383        33.77159         1.24979
C         45.33192        35.91037         1.42655
C         44.11514        35.20104         1.23035
C         45.28326        37.34041         1.50332
C         44.04774        38.04066         1.42199
C         45.29471        40.25491         1.86639
C         43.97044        39.47455         1.94997
C         45.30633        41.74218         1.60837
C         43.99569        42.45844         1.49885
C         45.15729        44.42854         0.52883
C         43.97543        43.80145         0.87244
C         45.09833        45.79352        -0.13317
C         43.87246        46.59926         0.22245
C         45.11506        48.72170        -0.06345
C         43.87786        48.02208         0.12813
C         45.11515        50.13950        -0.14214
C         43.87903        50.83892        -0.06521
C         45.12944        53.02791        -0.56918
C         43.86018        52.31097        -0.21694
C         45.07566        54.35284        -1.20875
C         43.82532        55.03259        -1.28033
C         45.00827        56.98907        -2.15669
C         43.79877        56.39375        -1.71454
C         46.41883        16.98873        -2.17335
C         47.68270        19.00181        -1.36431
C         46.43419        18.28971        -1.61760
C         47.69666        20.33284        -0.94301
C         46.45312        20.97163        -0.47297
C         47.71846        23.05348         0.14273
C         46.42133        22.42804        -0.29106
C         47.70087        24.55819         0.05772
C         46.47035        25.25843         0.11857
C         47.71815        27.36667         0.40355
C         46.47622        26.67557         0.30096
C         47.72541        28.78849         0.61245
C         46.50585        29.48262         0.82272
C         47.77588        31.58469         1.00829
C         46.52574        30.89484         1.06285
C         47.80553        33.00759         1.41882
C         46.54217        33.77651         1.42070
C         47.83486        35.88925         1.87646
C         46.55253        35.16783         1.52138
C         47.76363        37.36332         1.58759
C         46.57020        38.03660         1.57904
C         47.74681        40.27610         1.17428
C         46.57327        39.52162         1.67486
C         47.69402        41.61512         0.88055
C         46.48501        42.39017         0.99993
C         47.63725        44.43905         0.18785
C         46.42239        43.72414         0.57829
C         47.59453        45.82616        -0.02221
C         46.37566        46.58419         0.01010
C         47.62066        48.73741        -0.11406
C         46.35287        47.97374        -0.07988
C         47.59923        50.17170        -0.45967
C         46.36723        50.86635        -0.39026
C         47.56901        52.92802        -1.02119
C         46.37169        52.25156        -0.66591
C         47.52997        54.26907        -1.54213
C         46.27357        54.96551        -1.64585
C         46.19943        56.29828        -2.14860
C         50.11888        19.04406        -1.63953
C         48.96613        18.34631        -1.57402
C         50.10650        20.55071        -1.70164
C         48.90446        21.12127        -0.97236
C         50.16769        23.16631        -0.44930
C         48.93351        22.42303        -0.50234
C         50.16655        24.53045        -0.08130
C         48.92346        25.24826         0.09792
C         50.20005        27.36095         0.36065
C         48.94459        26.66353         0.28001
C         50.21520        28.78464         0.42266
C         48.96488        29.49227         0.55275
C         50.18685        31.66065         0.33584
C         48.95851        30.90421         0.69317
C         50.24517        33.11297         0.64573
C         49.09662        33.76708         1.33446
C         50.26694        35.91801         1.07034
C         49.08040        35.23340         1.31993
C         50.29514        37.34949         1.11066
C         49.06476        38.07814         1.49604
C         50.24562        40.20561         0.68252
C         49.03128        39.55343         1.20569
C         50.19530        41.59933         0.57246
C         48.89181        42.26477         0.23717
C         50.11861        44.46046         0.20686
C         48.90999        43.77144         0.28024
C         50.16974        45.80337        -0.34832
C         48.82287        46.50874        -0.43980
C         50.11235        48.62499        -0.89000
C         48.89504        47.97860        -0.31066
C         50.07431        50.10724        -1.03659
C         48.81175        50.84925        -0.75164
C         50.08965        53.03261        -1.01281
C         48.80877        52.22906        -0.97236
C         49.94642        54.19392        -1.96091
C         48.73892        54.80388        -2.11071
C         52.63962        20.60462        -1.63147
C         51.41363        21.20432        -1.30831
C         52.64462        23.17809        -0.48169
C         51.40750        22.50467        -0.75068
C         52.61579        24.52078        -0.03312
C         51.40019        25.23243         0.06925
C         52.67550        27.34304         0.45809
C         51.42553        26.64494         0.32069
C         52.68197        28.77740         0.47096
C         51.45836        29.47114         0.39109
C         52.74085        31.65583         0.45569
C         51.48525        30.92651         0.00546
C         52.75621        33.06430         0.53068
C         51.53862        33.82263         0.66895
C         52.75196        35.94854         0.70615
C         51.52184        35.20126         0.83655
C         52.71373        37.33388         0.59136
C         51.47800        38.05203         0.79567
C         52.67151        40.20008         0.26737
C         51.45180        39.47506         0.62152
C         52.68771        41.69833         0.44945
C         51.41152        42.35454         0.81016
C         52.65698        44.58464         0.41348
C         51.39493        43.90566         0.67890
C         52.67252        45.90436        -0.09756
C         51.43510        46.57878        -0.34618
C         52.62101        48.66420        -0.86833
C         51.41356        47.93420        -0.69839
C         52.58850        50.09124        -1.11535
C         51.36403        50.82787        -1.10157
C         52.58706        52.90318        -1.32404
C         51.36009        52.22518        -1.19270
C         53.84868        21.25580        -1.40378
C         55.12702        23.26037        -0.69279
C         53.89004        22.54335        -0.82730
C         55.16957        24.43526         0.16686
C         53.84526        25.17433         0.42890
C         55.14790        27.32408         0.68918
C         53.89906        26.63471         0.55187
C         55.15285        28.76257         0.74475
C         53.94171        29.48532         0.57697
C         55.20485        31.62259         0.67586
C         53.95293        30.92281         0.56900
C         55.20730        33.05486         0.61146
C         54.00490        33.76479         0.56123
C         55.20385        35.91936         0.46952
C         54.00966        35.22376         0.56282
C         55.22568        37.35907         0.44684
C         53.94098        38.03845         0.03333
C         55.14900        40.22076         0.27158
C         53.97344        39.52179         0.28629
C         55.23414        41.66243         0.47183
C         53.97028        42.38982         0.75774
C         55.20462        44.71974         0.75611
C         53.91793        43.91011         0.77383
C         55.17079        45.96103        -0.11833
C         53.91408        46.60905        -0.32351
C         55.09551        48.67378        -0.98571
C         53.86798        47.97695        -0.73704
C         55.06983        50.06285        -1.30905
C         53.81352        50.79377        -1.28901
C         53.78103        52.20227        -1.39920
C         57.41693        23.69356        -1.48273
C         56.23980        22.98895        -1.54208
C         57.65377        24.70340        -0.45713
C         56.43994        25.20590         0.32572
C         57.63426        27.32268         0.87760
C         56.39840        26.63586         0.68194
C         57.64544        28.73034         1.08799
C         56.40655        29.45953         0.90457
C         57.70804        31.57347         0.66907
C         56.41035        30.87338         0.81096
C         57.72841        33.06302         0.54212
C         56.47720        33.85757         0.80348
C         57.76208        36.02515         0.24298
C         56.47206        35.19477         0.03208
C         57.69220        37.37602         1.00446
C         56.38938        38.06641         0.57815
C         57.66817        40.17969         0.02573
C         56.38206        39.43474        -0.09407
C         57.67601        41.60801         0.13171
C         56.43705        42.34088         0.42201
C         57.76499        44.54400         0.20435
C         56.48993        43.83360         0.59878
C         57.66267        45.92592        -0.36068
C         56.37845        46.61575        -0.42306
C         57.54419        48.65907        -1.22875
C         56.33902        47.97394        -0.90790
C         57.48628        50.01696        -1.60089
C         56.28412        50.70653        -1.62284
C         60.10810        25.02739        -0.85318
C         58.88796        25.51762        -0.36379
C         60.09910        26.85986         1.21163
C         58.87358        26.57009         0.59465
C         59.99207        28.95156         2.07601
C         58.85938        29.50277         1.42559
C         60.06932        31.67628         1.48221
C         58.91916        30.90190         1.17579
C         60.13408        33.11787         1.19935
C         58.96771        33.81706         0.82308
C         60.20344        35.89757         0.70187
C         58.98112        35.21048         0.61771
C         60.24159        37.30672         0.16153
C         58.80657        37.90545         0.07977
C         60.07684        40.10850        -0.09157
C         58.83839        39.41209        -0.09794
C         60.07510        41.52239        -0.34324
C         58.88491        42.27528        -0.11273
C         60.05512        44.31022        -0.97119
C         59.08045        43.76763         0.03746
C         59.99611        45.74687        -1.39965
C         58.78367        46.51723        -0.91296
C         60.03111        48.57025        -1.35907
C         58.80436        47.93655        -1.21231
C         61.32282        25.48892        -0.33799
C         61.32164        26.35465         0.75786
C         61.10342        29.71362         2.45153
C         61.15316        31.06295         2.13970
C         61.33739        33.84155         1.31585
C         61.37482        35.20268         1.03603
C         61.28617        38.19359         0.77070
C         61.27925        39.49986         0.42926
C         61.21070        42.17171        -0.87960
C         61.12427        43.51512        -1.31745
C         61.27860        46.49919        -1.13075
C         61.26420        47.85356        -1.19203
O         52.58262        41.14061        -0.89165
O         49.87198        32.66126        -0.71875
O         49.29971        39.04704         2.57644
O         27.29372        33.55471        -0.63173
O         30.69173        42.33878         2.45178
O         46.14345        39.95742         3.03007
O         57.39601        24.30763         0.95474
O         38.32067        21.55009        -2.87395
O         29.62334        26.46095         2.26711
O         25.92068        31.30786        -0.78556
O         53.90148        43.10570         2.02109
O         49.89688        49.20383        -2.21384
O         38.37658        48.74462         2.54547
O         35.54260        27.82316         2.28954
O         54.49768        24.36201         1.45995
O         33.43459        22.37328         0.94650
O         40.33438        32.37117        -0.62355
O         37.07476        46.54521         2.80861
O         40.93522        35.66689        -0.41452
O         49.43923        45.95065        -1.63040
O         32.04174        35.59421         3.01119
O         25.09196        47.38542        -3.74749
O         27.52374        41.41619        -1.14094
O         45.71336        20.23734         0.57225
O         29.51539        29.10621         2.71368
O         48.67414        33.18942         2.63236
O         57.40366        44.35077         1.61913
O         42.38475        21.22062        -2.80854
O         36.94901        29.32990        -0.64582
O         24.78064        37.92115         2.71528
O         60.06614        27.60006         2.40849
O         23.78661        25.44102         1.20583
O         25.24307        28.03795         2.05560
O         48.54466        48.43863         1.02619
O         58.17001        36.90947        -0.95526
O         44.74217        42.45634         2.76671
O         38.46807        55.14877         1.29986
O         51.34099        43.21237         1.97188
O         57.80455        32.24914        -0.66155
O         44.54091        53.05453         0.82164
O         56.28503        39.16583        -1.53070
H         55.39252        38.77459        -1.71583
O         53.82808        37.88560        -1.42900
H         53.85112        36.92298        -1.62329
O         32.99620        28.39628         3.08666
H         33.87081        27.93888         3.18828
O         41.19227        30.83792         2.68566
H         42.02564        30.53835         3.12674
O         56.33988        34.93089        -1.37261
H         56.80245        35.65115        -1.85509
O         36.49169        42.56842        -0.38678
H         36.52772        41.65045        -0.73193
O         43.96514        30.62720         2.98454
H         44.19648        31.47889         3.41599
O         32.52458        45.77238        -1.79177
H         32.09390        46.21656        -2.56244
O         49.91591        20.89610        -3.12302
H         49.09791        20.44592        -3.42360
O         41.92245        18.86944        -3.90374
H         42.00246        19.85443        -3.94624
O         31.30686        47.94919        -3.09463
H         32.07390        48.52023        -3.31654
O         42.21824        18.63443        -0.24043
H         42.97102        18.74256         0.37868
O         36.56342        35.23777         3.24626
H         36.60828        36.17945         3.55807
O         36.64675        38.04319         3.47893
H         35.87716        38.53868         3.83700
O         50.22221        53.62356         0.33149
H         49.40915        54.14497         0.50393
O         32.04243        46.48314         1.76662
H         32.53585        46.23524         2.57649
O         39.39924        33.92895         2.58975
H         38.59420        34.23961         3.06638
O         43.68296        39.30030         3.36965
H         44.55632        39.31493         3.83219
O         55.25971        45.31579         2.07739
H         55.06113        44.60280         2.72515
O         35.42772        35.89492        -0.19559
H         34.69623        36.42119        -0.58090
O         51.60016        30.90067        -1.45278
H         51.15041        31.71679        -1.77817
O         44.98524        45.50451        -1.57733
H         44.96546        46.36345        -2.05037
O         34.27053        30.75574         3.21995
H         33.65404        30.02945         3.50466
O         33.40224        52.50881         1.15078
H         33.30419        53.47750         1.27552
O         22.94555        33.03030         3.08020
H         22.96771        33.94250         3.44003
O         48.70154        41.97493        -1.20559
H         49.35672        42.50157        -1.71245
O         41.49267        42.68735         3.11892
H         41.84257        41.88801         3.56956
O         47.84391        22.74018         1.57849
H         47.00660        23.00447         2.01529
O         32.59645        40.45082         3.41210
H         31.81849        41.04989         3.52599
O         25.74816        44.77048        -3.14097
H         25.63351        45.48369        -3.81083
O         59.82235        43.92111         1.29944
H         59.14438        43.91443         2.01738
O         39.09999        21.75528         0.67800
H         39.07668        22.43623         1.38356
O         56.52890        34.25112         2.21207
H         56.33113        33.46378         2.76182
O         42.45316        52.36384        -2.10327
H         41.61079        52.69397        -2.48207
O         26.64630        39.88824         2.79685
H         25.94872        39.28837         3.16720
O         59.84366        45.71614        -2.86655
H         59.89797        46.64433        -3.18074
O         60.68005        37.17743        -1.22515
H         59.90363        36.82502        -1.72207
O         57.92790        37.39455         2.39855
H         57.25010        36.84221         2.84069
O         47.96893        35.77642         3.33458
H         48.17370        34.82670         3.52096
O         39.52451        56.73217        -2.77869
H         40.14711        57.08451        -3.45038
H         22.93006        24.04383        -1.68108
H         20.84240        25.30522        -1.49649
H         20.74791        27.49750        -0.39211
H         20.67128        29.09932         0.87887
H         20.75165        31.47307         1.50265
H         20.70314        33.40203         1.20017
H         20.72847        35.80394         1.04805
H         20.72634        37.72508         0.92806
H         20.80405        40.11181         0.56453
H         20.88012        42.08513         0.46331
H         21.03185        44.43632        -0.16399
H         21.25043        46.36222        -0.35380
H         22.90919        48.82842        -3.47455
H         21.10310        48.38670        -1.76346
H         24.54192        22.99094        -1.50446
H         25.72948        49.58455        -4.74314
H         26.66588        21.85895        -1.85999
H         27.68965        51.02186        -4.15910
H         30.30146        19.62385        -1.96453
H         28.22956        20.86490        -1.82836
H         30.59805        53.70815        -2.35403
H         28.71855        52.29930        -3.03263
H         31.89226        18.65741        -2.08330
H         32.18439        54.78961        -1.90829
H         33.97591        17.53784        -2.60411
H         34.04319        56.13837        -1.06888
H         37.71933        15.39293        -3.06519
H         35.61486        16.55490        -2.74093
H         37.63806        58.31688        -0.74872
H         35.61079        57.20307        -0.31356
H         39.30265        14.39214        -2.87930
H         39.24059        59.26960        -1.40404
H         43.58427        14.29866        -2.58409
H         41.41473        13.13191        -2.84263
H         43.42475        59.03062        -2.33280
H         41.37289        60.34942        -1.99776
H         45.27264        15.33027        -2.90284
H         45.00994        58.02457        -2.52096
H         47.36258        16.45619        -2.35127
H         47.10727        56.80601        -2.49910
H         51.06808        18.50460        -1.76569
H         48.99832        17.24841        -1.61816
H         50.84053        54.62547        -2.43330
H         48.67969        55.71156        -2.72792
H         52.66139        19.61055        -2.09836
H         52.60228        54.00100        -1.36291
H         54.78629        20.74904        -1.67025
H         54.71495        52.76958        -1.50551
H         58.18460        23.53352        -2.25288
H         56.12962        22.21834        -2.31851
H         58.40476        50.55213        -1.87630
H         56.29346        51.76593        -1.90996
H         60.10824        24.22450        -1.60330
H         60.08388        49.65895        -1.49111
H         62.26972        25.08752        -0.72369
H         62.25367        26.62145         1.27190
H         61.93280        29.22485         2.97790
H         62.03473        31.64574         2.43334
H         62.27594        33.33269         1.57103
H         62.33871        35.72901         1.06122
H         62.14094        37.75340         1.30278
H         62.10966        40.16267         0.71319
H         62.11104        41.58539        -1.10983
H         61.92553        43.91949        -1.95295
H         62.21737        45.94458        -0.99365
H         62.19627        48.42871        -1.09405
