         334
 CSIRO Nanostructure Databank - Neutral Graphene Oxide Data Set
C         30.50939        57.19555        -0.07412
C         30.65874        58.69036         0.04911
C         29.35881        59.45422        -0.01586
C         30.61515        61.48091        -0.51119
C         29.38177        60.79284        -0.27080
C         32.83015        52.82873        -0.12234
C         32.85609        54.23658        -0.16682
C         31.64362        54.99051        -0.16413
C         32.92476        57.06139        -0.60755
C         31.62934        56.40582        -0.25480
C         32.97280        58.51105        -0.95997
C         31.64956        59.28039        -0.98416
C         33.05198        61.39452        -0.77894
C         31.79637        60.77077        -0.73222
C         35.24480        48.48560         0.01604
C         35.17374        49.88317         0.59342
C         33.97840        50.67361         0.16433
C         35.28991        52.75848         0.08843
C         34.02293        52.06425         0.03920
C         35.32174        54.16391        -0.07598
C         34.13624        54.89862        -0.17131
C         35.45506        57.00275        -0.73317
C         34.18666        56.40747        -0.07644
C         35.44958        58.51304        -0.60437
C         34.27044        59.22215        -0.78598
C         35.50433        61.34369        -0.67299
C         34.27456        60.66963        -0.76484
C         37.75418        44.24996        -0.47666
C         37.70313        45.63665        -0.51058
C         36.39235        46.37942        -0.67950
C         37.69349        48.46907         0.03826
C         36.41681        47.80662        -0.14459
C         37.71377        49.82976         0.70732
C         36.47053        50.63824         0.44466
C         37.75945        52.75376         0.54422
C         36.51024        52.01010         0.31586
C         37.76649        54.13139         0.47466
C         36.67301        54.82358        -0.29265
C         37.82068        57.04285         0.13715
C         36.67224        56.32600        -0.16057
C         37.85047        58.49200        -0.00168
C         36.68725        59.19898        -0.36175
C         37.93651        61.32640        -0.31484
C         36.71930        60.64383        -0.46552
C         40.33845        40.12721         0.56353
C         40.31509        41.49945         0.22444
C         39.07259        42.16299        -0.08773
C         40.19924        44.32504        -0.32471
C         38.99907        43.55385        -0.30534
C         40.16154        45.71039        -0.49274
C         38.91068        46.39493        -0.48915
C         40.13942        48.59235        -0.41477
C         38.87834        47.81388        -0.25038
C         40.18375        49.93494         0.23514
C         38.98730        50.60589         0.49701
C         40.23848        52.68971         0.79560
C         38.99728        52.00975         0.72042
C         40.25239        54.14867         1.00034
C         38.95465        54.90966         0.83699
C         40.23369        57.05458         0.67747
C         39.02956        56.35787         0.53199
C         40.24126        58.48520         0.55651
C         39.08358        59.19040         0.23136
C         40.29858        61.35430         0.31591
C         39.13458        60.64818         0.05929
C         42.95019        36.04943         1.86891
C         42.87191        37.32452         1.32940
C         41.52219        37.96619         1.07600
C         42.79917        40.12118         0.67713
C         41.53470        39.50306         1.21833
C         42.82451        41.62668         0.62797
C         41.51582        42.24834         0.22198
C         42.69723        44.32651        -0.62430
C         41.50728        43.73770         0.12234
C         42.65849        45.71641        -0.79480
C         41.42024        46.44261        -0.53715
C         42.64454        48.54627        -0.22795
C         41.41372        47.81922        -0.38066
C         42.64744        49.87905         0.17244
C         41.42885        50.60918         0.36329
C         42.74794        52.68484         0.82851
C         41.46388        51.99334         0.68316
C         42.72132        54.15097         1.25033
C         41.53080        54.85442         0.59834
C         42.69714        57.01658         0.97682
C         41.50618        56.34910         0.84186
C         42.69138        58.49006         1.30596
C         41.56107        59.22304         0.56511
C         42.78539        61.35402         0.88920
C         41.44176        60.68306         1.03526
C         45.54608        33.52836         2.87720
C         44.29975        34.12267         2.65946
C         45.40643        36.09176         1.70694
C         44.20970        35.41031         2.07937
C         45.33501        37.38724         1.10848
C         44.05236        38.01335         0.93891
C         45.15906        40.03769        -0.05252
C         43.95607        39.39503         0.52239
C         45.17503        41.49053        -0.28745
C         43.97754        42.21339        -0.15589
C         45.02787        43.91465        -1.48526
C         43.87841        43.49384        -0.75832
C         45.00917        46.03939        -1.64326
C         43.83746        46.53432        -1.03280
C         45.10586        48.56832        -0.61830
C         43.88279        47.86545        -0.55772
C         45.07762        50.01392        -0.31372
C         43.95599        50.49955         0.57459
C         45.23957        52.66024         0.93916
C         43.92441        52.00344         0.70883
C         45.26127        54.19312         1.09489
C         43.99432        54.91568         0.98482
C         45.19600        57.06338         0.90582
C         43.97963        56.31060         0.94662
C         45.19790        58.48509         0.94402
C         43.99877        59.20380         1.03948
C         45.24417        61.33813         0.85767
C         43.97910        60.64654         0.94023
C         46.72195        34.18974         2.53472
C         47.86616        36.18095         1.60918
C         46.68054        35.48301         1.94518
C         47.81324        37.45922         1.01656
C         46.54103        38.04312         0.74926
C         47.72096        40.12008        -0.14522
C         46.49187        39.32726         0.03972
C         47.65260        41.41959        -0.61284
C         46.38878        42.11162        -0.71214
C         47.54814        44.21690        -1.59999
C         46.32318        43.42096        -1.26294
C         47.52664        45.79274        -1.71296
C         46.28507        46.59312        -1.47146
C         47.55963        48.67748        -0.96308
C         46.31354        47.93722        -1.00113
C         47.58859        49.99960        -0.60540
C         46.36556        50.76920        -0.32108
C         47.64688        52.78669         0.35862
C         46.46941        52.06950         0.39385
C         47.68803        54.19795         0.66827
C         46.51398        54.89407         0.83504
C         47.71347        57.04810         1.21821
C         46.49670        56.37883         0.57280
C         47.67487        58.53721         1.00155
C         46.48073        59.20342         0.91503
C         47.70404        61.37049         0.83665
C         46.45599        60.66668         0.87061
C         49.00790        38.17409         0.66730
C         50.18439        40.19079        -0.12598
C         48.99063        39.46102         0.11595
C         50.16616        41.49907        -0.64100
C         48.88744        42.07447        -1.20489
C         50.01053        44.33620        -1.14633
C         48.84983        43.59781        -1.22988
C         50.00289        45.79796        -1.25243
C         48.79935        46.48821        -1.43408
C         50.08118        48.64781        -1.19353
C         48.77920        47.99709        -1.55354
C         50.12180        50.05799        -0.79116
C         48.85926        50.72983        -0.39838
C         50.12722        52.91815        -0.26146
C         48.79207        52.23872        -0.46990
C         50.17427        54.24812         0.09594
C         49.02835        54.88750         0.84152
C         50.16015        57.10485         0.52526
C         48.98355        56.38988         0.72499
C         50.19123        58.53538         0.70958
C         48.97439        59.25012         1.25862
C         50.16473        61.40208         0.84024
C         48.93141        60.71864         0.91728
C         51.33151        42.25678        -0.70551
C         52.48691        44.38200        -0.83596
C         51.30871        43.67093        -0.92668
C         52.49151        45.85943        -0.61047
C         51.24630        46.51458        -1.14801
C         52.55517        48.65825        -1.37465
C         51.26679        47.92866        -1.22747
C         52.56616        50.16793        -1.34231
C         51.32600        50.87034        -0.98297
C         52.57086        52.96556        -0.73565
C         51.33166        52.22265        -0.66848
C         52.56305        54.34003        -0.53049
C         51.38077        55.01965        -0.08423
C         52.61814        57.16149        -0.00097
C         51.38299        56.41177         0.14131
C         52.61421        58.58987         0.27089
C         51.38347        59.25434         0.58466
C         52.61990        61.39049         0.80653
C         51.38892        60.70436         0.77054
C         53.77909        46.56815        -0.95349
C         55.03911        48.69312        -1.17189
C         53.82977        47.93240        -1.16126
C         55.06773        50.11160        -1.11106
C         53.83950        50.87415        -1.11973
C         55.06705        52.97456        -0.78715
C         53.82467        52.25144        -0.93168
C         55.07205        54.36917        -0.68764
C         53.78344        55.12561        -0.91911
C         55.06103        57.29986        -0.61998
C         53.79135        56.52927        -0.38134
C         55.06764        58.65249         0.03518
C         53.83394        59.31027         0.29054
C         55.08695        61.38666         0.76128
C         53.84411        60.71633         0.63347
C         56.27865        50.81918        -0.92309
C         57.51021        52.93073        -0.55624
C         56.30353        52.22652        -0.75321
C         57.52670        54.33373        -0.39960
C         56.29034        55.07879        -0.48261
C         57.51736        57.16410        -0.08016
C         56.30943        56.48889        -0.33794
C         57.53136        58.58444         0.15985
C         56.28581        59.30551         0.25434
C         57.56042        61.34358         0.82822
C         56.29743        60.69884         0.62374
C         58.73988        55.03655        -0.19289
C         59.97787        57.14389         0.16524
C         58.75345        56.42648        -0.02448
C         59.98734        58.51180         0.36416
C         58.74669        59.24788         0.41584
C         60.04309        61.37319         1.03579
C         58.74820        60.65124         0.73438
C         61.24066        59.24148         0.49842
C         61.27439        60.56219         0.75892
O         47.54839        44.91191        -2.88148
O         40.06690        48.98262        -1.97954
O         44.86784        44.90702        -2.45294
O         49.65654        50.18464         0.68634
O         45.67872        39.27897        -1.19823
O         45.40540        50.85515        -1.45585
O         52.53418        49.43134        -2.63138
O         32.99123        57.46940        -2.02591
O         45.33491        53.27756         2.26305
O         39.53894        54.60863         2.16895
O         41.47359        39.82215         2.68147
H         40.58421        40.20026         2.85588
O         31.07028        59.15770        -2.29578
H         31.42653        58.32808        -2.69067
O         60.09675        62.62524         0.33119
H         60.07322        62.43340        -0.62852
O         37.01512        54.55451        -1.70368
H         36.45732        55.17601        -2.23995
O         41.65192        44.22698         1.51765
H         42.29579        43.61431         1.96307
O         42.44872        58.55540         2.75000
H         43.10641        57.97580         3.18956
O         53.69521        55.27056        -2.40530
H         52.79545        55.60624        -2.60886
O         49.34631        54.64993         2.26246
H         48.69690        55.18971         2.77865
O         31.26114        58.94857         1.36308
H         30.60383        58.70233         2.04701
O         38.85124        49.70400        -2.18370
H         39.13898        50.65007        -2.18853
O         48.88613        41.68352        -2.61866
H         48.10227        42.09417        -3.04261
O         48.44384        52.51953        -1.86247
H         48.29991        53.48450        -1.95729
O         42.53352        54.15867         2.68935
H         43.36846        53.81683         3.08332
O         35.45869        56.67490        -2.15433
H         34.58865        56.98250        -2.52249
O         46.69757        56.54951        -0.87100
H         45.86678        56.29483        -1.32512
O         36.07844        46.42481        -2.08690
H         36.78748        46.92940        -2.53743
O         41.06935        60.77453         2.44010
H         41.59110        60.09569         2.93364
O         41.68278        54.65583        -0.83585
H         40.91422        55.06262        -1.28881
O         49.14233        59.18597         2.74271
H         48.59798        59.90962         3.12248
O         52.37984        46.01477         0.87459
H         51.59383        45.50194         1.16183
O         40.53134        37.42694         1.95026
H         40.66715        37.86127         2.82102
O         34.99336        49.66833         2.05266
H         35.87347        49.35568         2.38582
O         47.65104        56.82450         2.66285
H         48.26225        57.49561         3.06150
O         34.28288        56.74292         1.33370
H         33.49346        56.38121         1.78855
O         55.10215        57.58048        -2.07041
H         54.82686        56.74220        -2.52204
O         41.96635        59.30136        -0.83038
H         42.03227        58.38763        -1.17905
O         48.62984        48.25149        -3.00896
H         49.33105        47.74687        -3.47480
O         44.28617        49.98197         1.90609
H         43.59498        50.28771         2.53052
O         37.70807        49.51850         2.16425
H         37.89645        50.35766         2.63841
O         43.06382        42.00953         2.05032
H         42.55238        41.34983         2.59048
H         29.54279        56.72629         0.16790
H         28.41502        58.94243         0.22749
H         30.63567        62.58007        -0.46457
H         28.45034        61.37763        -0.23504
H         31.86248        52.30636        -0.14490
H         30.69245        54.45539        -0.02816
H         33.10058        62.49142        -0.69012
H         34.29117        47.96320        -0.15904
H         33.00547        50.15990         0.12547
H         35.51911        62.44345        -0.70528
H         36.82028        43.66862        -0.51091
H         35.56321        45.80881        -0.18950
H         37.95367        62.42296        -0.40640
H         39.41313        39.53654         0.49273
H         38.14499        41.57124        -0.07041
H         40.30151        62.45059         0.20927
H         42.02401        35.53324         2.16188
H         41.21583        37.71476         0.02506
H         42.81965        62.45326         0.82610
H         45.59743        32.52802         3.32985
H         43.37906        33.59240         2.94183
H         45.23614        62.43770         0.80996
H         47.69651        33.71573         2.72015
H         48.84253        35.71444         1.80680
H         47.68491        62.46543         0.72221
H         49.97790        37.69496         0.86757
H         51.14770        39.75145         0.17583
H         50.16925        62.50066         0.77340
H         52.28792        41.79542        -0.41383
H         53.42757        43.83096        -0.68010
H         52.62411        62.47341         1.00078
H         54.71639        46.00635        -0.81626
H         55.99351        48.15135        -1.08379
H         55.09517        62.45981         1.00347
H         57.22751        50.26250        -0.89273
H         58.45998        52.37600        -0.52150
H         57.57659        62.41300         1.08577
H         59.68631        54.47634        -0.16071
H         60.92717        56.58770         0.14689
H         60.05082        61.63980         2.13200
H         62.17611        58.68100         0.34761
H         62.23850        61.08872         0.82243
