         231
 CSIRO Nanostructure Databank - Neutral Graphene Oxide Data Set
C         32.47786        30.63916        -1.95510
C         32.43901        31.86854        -2.15906
C         32.44980        34.97075        -2.88105
C         32.48714        36.15563        -3.23719
C         32.64851        39.14766        -4.06723
C         32.70734        40.35594        -4.43087
C         33.93586        28.42467         0.58199
C         33.25370        28.66051        -0.48421
C         33.55904        30.99647         0.16229
C         33.10130        30.05226        -0.78577
C         33.39936        32.50609        -0.01635
C         32.93159        32.96992        -1.42245
C         33.77477        35.24992        -0.91217
C         33.03064        34.28982        -1.76139
C         33.65517        36.72544        -1.14920
C         32.89182        37.27045        -2.36713
C         33.90227        39.57506        -2.11679
C         33.16958        38.61908        -2.87700
C         33.99138        40.93428        -2.52894
C         33.34927        41.39610        -3.74388
C         34.29008        43.48377        -3.37018
C         33.44705        42.80223        -4.02112
C         35.59623        27.20346         2.82884
C         35.27392        28.65480         2.81339
C         34.42978        29.07779         1.65725
C         35.41363        31.37740         1.83726
C         34.13373        30.58597         1.52757
C         35.26689        32.89152         1.71357
C         34.73779        33.25511         0.28856
C         35.45701        35.72000         0.83290
C         34.58975        34.77324         0.07823
C         35.57221        37.13097         0.36016
C         34.66310        37.62857        -0.53493
C         35.65797        39.97962        -0.27247
C         34.59730        39.08605        -0.87301
C         35.92873        41.27242        -0.98322
C         34.70193        41.94805        -1.60324
C         36.18263        44.02946        -1.76137
C         35.13745        43.25871        -2.29238
C         36.47656        45.41987        -2.03509
C         38.05961        27.14535         2.65491
C         36.66646        26.62314         2.70481
C         37.87660        28.69469         2.61369
C         36.67862        29.34217         2.56782
C         37.77091        31.60548         2.51139
C         36.55178        30.78752         2.30415
C         37.74174        33.04470         2.16150
C         36.55894        33.66418         1.90522
C         37.71381        35.96597         2.21905
C         36.49702        35.14679         1.76465
C         37.86888        37.28992         1.47757
C         36.64571        37.95919         0.99021
C         38.05663        40.11549         0.70026
C         36.74113        39.42037         0.61361
C         38.17562        41.46382         0.28337
C         37.13301        42.07097        -0.58548
C         38.13855        44.36413        -0.15900
C         37.11140        43.52237        -0.82767
C         38.32378        45.90130        -0.47963
C         37.22359        46.20686        -1.45272
C         39.24540        25.18097        -0.41355
C         38.65914        25.63389         0.61685
C         39.82668        27.60871         0.81415
C         38.78673        26.78991         1.36819
C         40.10661        28.89072         1.41511
C         39.22914        29.39689         2.55337
C         40.28813        31.68979         2.12731
C         39.10400        30.91413         2.53505
C         40.26555        33.06497         2.15078
C         38.99873        33.79665         2.23250
C         40.23664        35.92843         2.60264
C         38.99626        35.16297         2.22393
C         40.21688        37.36113         2.12180
C         39.05742        38.03532         1.68554
C         40.35675        40.19882         1.51973
C         39.15189        39.46549         1.32528
C         40.47999        41.54631         1.10158
C         39.36032        42.18900         0.52231
C         40.66383        44.47005         0.57034
C         39.35117        43.67468         0.41854
C         40.84423        45.51584        -0.54004
C         39.69367        46.15185        -1.04579
C         41.14666        47.61614        -2.31810
C         40.02721        47.16293        -1.95616
C         41.18253        25.63385        -2.06880
C         40.31117        25.90575        -0.97588
C         41.73496        27.98074        -0.73320
C         40.61520        27.17331        -0.31244
C         42.04984        29.20300        -0.05697
C         41.19524        29.64646         1.01256
C         42.54635        31.78059         1.09483
C         41.53816        30.90553         1.78793
C         42.64084        33.15673         1.51528
C         41.50359        33.81697         1.99715
C         42.74410        35.92503         2.32662
C         41.54131        35.23047         2.25894
C         42.69429        37.35252         2.60957
C         41.42169        38.08543         2.48918
C         42.82683        40.23122         2.15014
C         41.50080        39.60010         2.23441
C         42.93357        41.54087         1.62020
C         41.75828        42.24953         1.17878
C         43.16357        44.16014         0.55171
C         41.87892        43.57004         0.71801
C         43.30252        45.39766        -0.17783
C         42.16084        45.99704        -0.84463
C         43.68306        47.59501        -1.81057
C         42.34016        47.13871        -1.73716
C         42.14292        26.35978        -2.40294
C         43.75581        28.29856        -2.13954
C         42.59891        27.57025        -1.81759
C         44.09681        29.47977        -1.41834
C         43.20484        29.96681        -0.43074
C         44.48477        32.17943        -0.34442
C         43.41717        31.28005         0.15589
C         44.80775        33.41224         0.41778
C         43.86327        33.89002         1.30642
C         45.27003        35.89729         1.66307
C         44.06628        35.11652         2.16396
C         45.59167        37.07877         2.32277
C         43.78828        38.13013         2.96241
C         45.27494        40.12196         2.55498
C         43.97674        39.52331         2.61378
C         45.36745        41.49373         2.13179
C         44.20445        42.18537         1.63028
C         45.59773        44.14148         1.05589
C         44.32527        43.48797         1.06010
C         45.71493        45.41300         0.40901
C         44.60511        45.97249        -0.27916
C         44.61165        47.10412        -1.13000
C         45.66585        28.70696        -3.60845
C         44.73916        28.01719        -3.14847
C         46.29569        29.79812        -2.86200
C         45.37965        30.18998        -1.68922
C         46.91776        32.22332        -1.30802
C         45.51602        31.61826        -1.26371
C         46.93597        33.67229        -0.85794
C         46.01332        34.14439         0.06777
C         47.37389        36.21425         0.44413
C         46.20507        35.45020         0.69644
C         47.53399        37.51137         0.99040
C         46.53630        37.99016         1.86263
C         47.86718        40.04669         2.41157
C         46.56039        39.32616         2.51524
C         47.82808        41.52803         2.81565
C         46.60984        42.18658         2.16053
C         47.92186        44.28829         2.00374
C         46.71563        43.53014         1.73866
C         47.94374        45.45554         1.23531
C         47.00585        45.96836         0.56702
C         47.84570        30.80245        -4.65234
C         47.19280        30.83267        -3.41541
C         48.51775        32.92745        -3.14926
C         47.53706        32.00766        -2.68719
C         48.90278        34.05019        -2.27940
C         48.10129        34.44950        -1.22769
C         49.39842        36.64341        -0.96642
C         48.52868        35.58323        -0.30242
C         49.60252        37.90959        -0.32611
C         48.70698        38.35297         0.73993
C         50.07935        40.39104         1.22009
C         48.87699        39.55039         1.42886
C         50.09483        41.82720         1.67442
C         49.09621        42.31164         2.51351
C         50.28738        44.40963         2.59920
C         48.98436        43.79436         2.97313
C         48.70189        31.60582        -5.12822
C         50.20166        33.68817        -4.65303
C         49.15830        32.73076        -4.43493
C         50.64315        34.56378        -3.90352
C         50.24588        34.78069        -2.46731
C         51.09247        37.22166        -2.44848
C         50.18846        36.22338        -2.05350
C         51.28922        38.34949        -1.91785
C         50.65737        38.77665        -0.73628
C         51.82351        41.05474        -0.42843
C         51.04708        39.92362         0.07849
C         52.01807        42.09081         0.25404
C         51.19152        42.69872         1.22126
C         51.09033        44.01340         1.73026
O         38.25374        44.16743         1.28318
O         44.45213        32.43987        -1.82116
O         44.89088        37.43982         3.48130
O         47.56902        39.23365         3.60521
O         51.31482        39.64934         1.47008
O         37.07075        41.24272        -1.87436
O         38.47770        31.38126         3.78294
O         35.24609        35.70363         2.31263
O         34.33132        39.91512         0.31913
O         41.18941        39.07477         3.56076
O         46.60148        29.40405        -1.48895
O         32.27362        37.23072        -1.06307
O         36.19199        39.02801         1.91252
O         44.38865        34.64095         3.49994
H         44.55155        35.43645         4.05635
O         34.74758        29.13244         4.02952
H         34.00071        29.75115         3.84233
O         38.81249        26.70122         3.76395
H         39.47653        27.39885         3.99667
O         38.22734        46.63646         0.72554
H         37.36676        46.43839         1.15074
O         33.16291        30.86759         2.56088
H         33.05291        31.85212         2.60813
O         32.39214        32.94595         0.91004
H         32.25597        33.91115         0.80177
O         47.73748        31.53139        -0.33505
H         47.71344        30.56745        -0.55296
O         37.46868        36.33475         3.60997
H         36.58798        36.77357         3.63978
O         35.75108        32.79273        -0.62672
H         35.42821        32.92220        -1.54422
O         33.78861        42.34531        -0.56906
H         33.56240        41.54430        -0.03462
O         48.64545        43.99341         4.31751
H         48.15992        43.20089         4.65524
O         51.18453        34.13433        -1.59219
H         52.05232        34.58327        -1.67631
O         40.59422        45.21082         1.80759
H         39.71137        45.65251         1.83348
O         39.91676        29.08970         3.79794
H         39.54291        29.68784         4.48403
O         34.30216        33.28247         2.70557
H         34.39436        34.25988         2.84924
O         49.37985        34.96351         0.70572
H         50.06048        34.43073         0.23260
O         42.15730        30.47137         3.03432
H         42.40529        31.27229         3.54306
O         47.57871        41.60791         4.23817
H         47.49263        40.67314         4.56551
O         40.19866        36.02060         4.06084
H         39.29494        36.33379         4.30609
