         404
 CSIRO Nanostructure Databank - Neutral Graphene Oxide Data Set
C          1.83825         2.24222        -2.81122
C          1.73070         3.63144        -2.47433
C          3.05249         1.60892        -2.85275
C          2.82006         4.36966        -2.07652
C          1.54172         6.47645        -1.62174
C          1.46771         7.88692        -1.36204
C          2.73067         5.80053        -1.81102
C          2.58011         8.68409        -1.28172
C          1.37850        10.89520        -0.66655
C          1.40631        12.24595        -0.45197
C          2.54916        10.17130        -1.14845
C          2.61922        13.02309        -0.43477
C          1.39358        15.20887        -0.12511
C          1.39269        16.57551         0.08569
C          2.60454        14.46214        -0.18543
C          2.60665        17.29675         0.22311
C          2.63930        18.71182         0.42475
C          4.26051         2.30808        -2.50931
C          4.12686         3.63975        -1.79924
C          5.49857         1.73648        -2.69519
C          5.37048         4.48579        -1.92399
C          3.98649         6.58135        -1.80063
C          3.90165         8.06847        -1.54969
C          5.29075         5.87181        -1.68089
C          5.10338         8.74301        -0.96183
C          3.89533        10.95991        -1.00762
C          3.84668        12.34723        -0.52054
C          5.14572        10.20535        -0.83467
C          5.08301        12.98763        -0.16834
C          3.82836        15.15607        -0.04490
C          3.83872        16.58251         0.13923
C          5.07818        14.42905         0.00879
C          5.05698        17.30790         0.20828
C          3.82844        19.38984         0.54941
C          5.08515        18.70521         0.45201
C          6.72420         2.45887        -2.45964
C          6.62426         3.86547        -2.11070
C          7.96990         1.86384        -2.60963
C          7.81790         4.63412        -2.05514
C          6.46926         6.61562        -1.49932
C          6.41208         7.99213        -0.96031
C          7.73117         6.01431        -1.71209
C          7.64488         8.78099        -0.82419
C          6.31869        10.84416        -0.44106
C          6.28246        12.25362        -0.13436
C          7.59326        10.12731        -0.43279
C          7.51593        12.89694         0.32859
C          6.27730        15.12513         0.11299
C          6.31791        16.59035         0.00310
C          7.51587        14.42434         0.41745
C          7.62917        17.32269         0.25703
C          6.31746        19.38382         0.68936
C          7.56502        18.72731         0.71180
C          9.20969         2.58035        -2.46451
C          9.09731         4.03365        -2.33500
C         10.39321         1.83749        -2.29567
C         10.18338         4.90167        -2.47031
C          8.92263         6.79912        -1.57097
C          8.89150         8.13919        -1.07142
C         10.15237         6.25439        -2.00319
C         10.10475         8.80791        -0.75975
C          8.82808        10.81341        -0.15934
C          8.81436        12.20166         0.18591
C         10.07532        10.14797        -0.26963
C          9.99975        12.88038         0.42548
C          8.79702        15.14969         0.41747
C          8.84770        16.52965         0.53998
C         10.02561        14.35836         0.45884
C         10.03677        17.21074         0.97898
C          8.75757        19.33774         1.14036
C          9.99123        18.62171         1.26145
C         11.67516         2.33274        -1.86971
C         12.01319         3.69876        -2.06508
C         12.66405         1.51849        -1.22658
C         12.96257         4.35830        -1.25527
C         11.33953         7.01182        -1.76326
C         11.35817         8.16035        -0.98614
C         13.12118         5.74776        -1.23684
C         12.54761         8.67167        -0.23151
C         11.31158        10.81779         0.05406
C         11.26230        12.18665         0.45159
C         12.55552        10.12826         0.07028
C         12.43427        12.82193         0.91935
C         11.27662        15.04839         0.91749
C         11.21418        16.47551         1.29420
C         12.30572        14.16754         1.58964
C         12.34824        17.09669         1.82934
C         11.17902        19.25640         1.67971
C         12.37359        18.52619         1.92378
C         13.76286         2.08187        -0.53581
C         13.70014         3.54402        -0.27760
C         14.88285         1.37207        -0.06207
C         14.80230         4.24908         0.48403
C         13.95689         6.43911        -0.32057
C         13.80386         7.88365         0.04118
C         14.92746         5.70449         0.34431
C         15.02327         8.59930         0.51744
C         13.72986        10.75089         0.54994
C         13.66071        12.12456         0.96596
C         14.97156        10.01251         0.74056
C         14.83528        12.78049         1.46914
C         13.59365        14.90241         1.77457
C         13.51821        16.29044         2.36218
C         14.78144        14.18806         1.81736
C         14.84368        17.01454         2.29236
C         13.61413        19.17228         2.15779
C         14.83826        18.44482         2.20415
C         16.01285         1.99417         0.55935
C         15.95824         3.42792         0.96257
C         17.21453         1.31504         0.73203
C         17.23114         4.13345         1.31693
C         16.18291         6.40623         0.65948
C         16.17437         7.87102         0.86035
C         17.36659         5.60356         1.05703
C         17.33905         8.48833         1.41112
C         16.12958        10.66686         1.21824
C         16.05915        12.06870         1.55721
C         17.34948         9.93184         1.53156
C         17.19571        12.70102         2.13699
C         15.95411        14.83238         2.34640
C         16.04948        16.29200         2.40249
C         17.00149        13.97369         2.70217
C         17.31695        16.99578         2.28536
C         16.07185        19.11699         2.07201
C         17.29268        18.40997         2.01236
C         18.45910         1.94229         1.12073
C         18.50193         3.38165         1.34634
C         19.63242         1.20154         1.11669
C         19.67998         4.07970         1.52113
C         18.53873         6.31144         1.60650
C         18.49426         7.70721         1.76506
C         19.74354         5.53634         1.71684
C         19.68520         8.36491         2.35489
C         18.50947        10.61209         1.92503
C         18.56246        12.11869         1.80243
C         19.71161         9.89950         2.39897
C         19.79101        12.72754         2.53025
C         18.85678        15.04295         2.70333
C         18.61139        16.36577         2.23366
C         19.88756        14.22834         2.27726
C         19.73930        17.01416         1.65867
C         18.48335        19.10023         1.63465
C         19.68390        18.42516         1.38005
C         20.92839         1.79872         1.44391
C         20.93218         3.30982         1.63831
C         22.18806         1.09715         1.08976
C         22.18610         4.04017         1.30412
C         20.95940         6.18609         1.96300
C         20.98263         7.59719         2.38653
C         22.23890         5.52942         1.60646
C         22.33589         8.39950         2.37138
C         21.03554        10.58119         2.24577
C         21.03837        11.99558         2.07396
C         22.24165         9.86252         2.17667
C         22.17292        12.69690         1.56975
C         20.97462        14.86138         1.61542
C         20.92840        16.27199         1.39688
C         22.14460        14.11689         1.30705
C         22.09909        16.93597         0.91006
C         20.85581        19.07217         0.88415
C         22.04458        18.37037         0.65881
C         23.40328         1.73844         1.02780
C         23.41788         3.23423         1.06674
C         24.64326         1.05953         0.73679
C         24.70656         3.89551         1.39321
C         23.56815         6.21536         1.81261
C         23.62530         7.69358         2.08758
C         24.78244         5.35816         1.69375
C         24.74836         8.42207         1.77179
C         23.45308        10.62437         1.83438
C         23.37016        11.99498         1.32104
C         24.73003         9.88766         1.59029
C         24.52206        12.63704         0.75875
C         23.30289        14.79147         0.84671
C         23.27277        16.20685         0.67831
C         24.49260        14.04326         0.53393
C         24.57550        16.93641         0.47227
C         23.19666        19.01256         0.12037
C         24.40127        18.32889        -0.09228
C         25.88241         1.70446         0.69121
C         25.96345         3.11803         1.14315
C         27.11963         1.05710         0.42452
C         27.21854         3.85811         0.91494
C         26.06260         5.79338         1.85507
C         26.11083         7.92229         1.73792
C         27.12111         5.34905         0.87740
C         27.14396         8.35818         0.96911
C         25.70012        10.44024         0.59487
C         25.68829        11.89319         0.37820
C         26.95021         9.63029         0.23816
C         26.77042        12.49576        -0.29844
C         25.61897        14.68517        -0.06969
C         25.63155        16.11785        -0.23121
C         26.69904        13.90214        -0.54697
C         26.70886        16.77793        -0.81771
C         25.51323        18.95301        -0.67096
C         26.70381        18.23159        -0.96433
C         28.35344         1.74630         0.43634
C         28.37095         3.20128         0.58167
C         29.59779         1.09314         0.30309
C         29.58384         3.96818         0.38641
C         28.42150         6.11787         0.83613
C         28.49006         7.64472         1.04339
C         29.56541         5.42581         0.47119
C         29.53106         8.30196         0.15440
C         28.13924        10.37237        -0.19911
C         28.00291        11.73554        -0.56569
C         29.39813         9.68212        -0.25015
C         29.16039        12.41220        -1.04158
C         27.75383        14.57572        -1.31107
C         27.83615        16.04189        -1.31670
C         29.06190        13.78565        -1.55705
C         28.99347        16.69333        -1.76656
C         27.83506        18.87446        -1.45801
C         29.01421        18.15605        -1.83903
C         30.80523         1.82146         0.24130
C         30.77862         3.27383         0.19210
C         32.06032         1.16894         0.28366
C         31.99345         3.99769        -0.06966
C         30.77742         6.14970         0.10391
C         30.71109         7.59696        -0.10225
C         31.92305         5.43390        -0.22808
C         31.87105         8.30040        -0.60082
C         30.53864        10.37453        -0.74879
C         30.41591        11.76010        -1.09276
C         31.80186         9.69152        -0.88628
C         31.58347        12.50861        -1.45536
C         30.28038        14.57653        -1.72270
C         30.22374        15.97365        -1.96151
C         31.51974        13.89285        -1.65533
C         31.43544        16.70697        -2.23793
C         30.12837        18.82584        -2.30072
C         31.33477        18.09625        -2.81863
C         33.26191         1.89041         0.17404
C         33.20130         3.29054        -0.15773
C         34.51986         1.30247         0.52457
C         34.44890         3.96075        -0.53682
C         33.09927         6.14655        -0.76460
C         33.10407         7.62261        -0.78491
C         34.41824         5.41581        -0.85394
C         34.27464         8.30382        -1.16179
C         32.97086        10.36132        -1.35765
C         32.84793        11.78737        -1.72740
C         34.21379         9.69725        -1.43453
C         34.10279        12.58005        -1.96826
C         32.75015        14.71250        -1.62765
C         32.68379        16.12746        -2.03153
C         34.07890        14.03785        -1.66725
C         33.90619        16.86473        -2.15958
C         32.58836        18.89468        -2.63069
C         33.82028        18.30083        -2.37200
C         35.70615         2.03319         0.56218
C         35.76867         3.34569        -0.11867
C         36.88714         1.56091         1.18751
C         36.92983         4.23645         0.07541
C         35.66581         6.18968        -0.78265
C         35.57901         7.58365        -1.24863
C         36.87289         5.62356        -0.35998
C         36.87169         8.41534        -1.15920
C         35.48641        10.42290        -1.73814
C         35.44219        11.91895        -1.93957
C         36.76289         9.88012        -1.22380
C         36.63473        12.73930        -1.63507
C         35.30626        14.82339        -1.89860
C         35.17798        16.24841        -2.01781
C         36.54261        14.18810        -1.78146
C         36.37111        17.03849        -1.99637
C         35.01567        19.07226        -2.32848
C         36.27732        18.47237        -2.13644
C         38.03272         2.35555         1.26607
C         38.05051         3.70543         0.72963
C         39.20653         1.86465         1.93093
C         39.24785         4.48423         0.86121
C         38.06901         6.44612        -0.25619
C         38.06970         7.80504        -0.56202
C         39.31379         5.79855         0.20634
C         39.19117         8.68536        -0.26024
C         37.88135        10.68075        -1.05076
C         37.82219        12.11386        -1.30671
C         39.11371        10.08906        -0.52619
C         39.11963        12.87960        -1.42149
C         37.73883        14.98819        -1.67331
C         37.62918        16.42557        -1.77731
C         38.96275        14.38542        -1.36940
C         38.80204        17.22720        -1.65805
C         37.45869        19.24668        -2.08131
C         38.71119        18.64945        -1.83502
C         40.31349         2.65206         2.08914
C         40.35300         3.98559         1.55898
C         41.46811         4.84903         1.86799
C         40.52353         6.69106         0.52672
C         40.36534         8.15232         0.33979
C         41.50696         6.14917         1.47651
C         41.41119         9.01460         0.70629
C         40.21426        10.93574        -0.19911
C         40.20560        12.35222        -0.51928
C         41.34185        10.37105         0.43732
C         41.23281        13.20818        -0.16821
C         40.11791        15.18932        -1.10163
C         40.05852        16.62919        -1.33611
C         41.23525        14.57764        -0.52522
C         41.19472        17.44710        -1.24980
C         39.89494        19.43559        -1.73831
C         41.10903        18.83527        -1.45882
O         40.43636         5.93862        -0.72550
O         33.49376        14.41214        -0.36552
O         22.87545         6.21141         0.46881
O         28.05486        13.95856        -2.60404
O         17.18416         5.94425        -0.37511
O         21.00089         2.43415         2.79759
O         17.93820        14.49281         3.59832
O          3.22188        10.78668        -2.29647
O          7.38584        13.56683         1.62723
O         36.40188         7.83066        -2.42498
O         11.36467         4.42203        -3.07376
O         33.30759        12.15022        -3.10237
O         12.70956         7.93373         1.05488
O         35.62580        11.01274        -3.07289
O         24.59744        10.58891         2.85530
O          5.56647         8.06458         0.25898
O          4.06726         7.57010        -2.91292
O         35.28038         3.24450        -1.50315
O         25.39254         3.21186         2.51891
O         33.60294         5.63894        -2.05581
O         26.36317         6.89168         2.65906
O         13.51894         3.89418         1.12750
O         25.78269         9.66579        -0.64900
O         21.73750         7.86561         3.60191
O          7.13727        17.11394        -1.11248
O         22.66586         3.78360        -0.06132
O         12.54825         6.50535        -2.26078
O         16.29272         3.72514         2.36453
O         11.07432        14.83853        -0.50157
O         19.46506         9.09452         3.59584
O         19.61514        12.45826         3.93279
H         20.43125        12.71153         4.41021
O         11.78652        13.89888         2.93891
H         12.09255        14.64001         3.52329
O         39.59033        12.58231        -2.79239
H         38.84556        12.75960        -3.40627
O         31.14746        17.92757        -4.28193
H         30.35145        17.36746        -4.40742
O         18.76794        12.44247         0.38926
H         18.03465        12.04036        -0.12319
O         26.49271         5.65677        -0.43771
H         27.13314         5.41294        -1.14066
O         25.11161        17.14106         1.83571
H         24.46865        17.70433         2.31726
O          4.05654         3.30451        -0.36319
H          3.31195         2.67601        -0.24988
O         13.20111        16.09593         3.81561
H         14.02969        15.79984         4.25196
O         29.00048         7.82258         2.40591
H         28.31464         7.45957         3.01235
H          0.92749         1.70372        -3.10782
H          0.75188         4.11569        -2.60355
H          3.12524         0.56955        -3.20600
H          0.59238         5.92207        -1.63939
H          0.46870         8.32414        -1.21794
H          0.45669        10.33237        -0.45874
H          0.46917        12.73767        -0.15517
H          0.43033        14.69482        -0.24597
H          0.43833        17.11960         0.13629
H          1.68629        19.25720         0.48886
H          5.56545         0.71327        -3.09784
H          3.82869        20.47543         0.72503
H          8.01861         0.78319        -2.81589
H          6.27852        20.45029         0.95944
H         10.26985         0.74186        -2.27258
H          8.73817        20.39880         1.43269
H         12.56152         0.42365        -1.27267
H         11.18679        20.34829         1.81406
H         14.95070         0.29404        -0.27623
H         13.65281        20.27163         2.15960
H         17.25631         0.24729         0.46573
H         16.07674        20.20637         1.91676
H         19.60562         0.14917         0.79502
H         18.42423        20.18447         1.45654
H         22.13561         0.00912         0.92941
H         20.81952        20.15143         0.67320
H         24.60109        -0.02560         0.55497
H         23.12179        20.06998        -0.17706
H         27.12089        -0.02382         0.21658
H         25.45622        20.01795        -0.94430
H         29.63274        -0.00590         0.26925
H         27.83095        19.96970        -1.56392
H         32.09473         0.08272         0.45369
H         30.10951        19.92430        -2.36828
H         34.51664         0.27492         0.91841
H         32.53818        19.98243        -2.79224
H         36.88938         0.56182         1.64813
H         34.95317        20.16228        -2.46477
H         39.19142         0.83995         2.32936
H         37.39467        20.33803        -2.20451
H         41.19616         2.27029         2.62213
H         42.24869         4.45711         2.53684
H         42.29342         6.80589         1.87355
H         42.32228         8.61331         1.16870
H         42.20217        10.99814         0.70193
H         42.08802        12.84604         0.41887
H         42.11327        15.17802        -0.25135
H         42.17667        17.00831        -1.02638
H         39.83012        20.52316        -1.88483
H         42.02040        19.44561        -1.39017
