         344
 CSIRO Nanostructure Databank - Neutral Graphene Oxide Data Set
C          1.29958         2.08374         0.74657
C          1.29933         3.51786         0.79514
C          2.46712         1.37506         0.77731
C          2.44709         4.24188         1.00424
C          1.24889         6.43852         0.94640
C          1.24357         7.82050         0.87075
C          2.45819         5.70167         0.96372
C          2.44496         8.54564         0.68411
C          1.28302        10.76216         0.72127
C          1.29776        12.14595         0.79898
C          2.46965        10.00199         0.64153
C          2.51570        12.87985         0.80510
C          1.33627        15.10451         0.91261
C          1.35035        16.44715         1.10454
C          2.54449        14.30756         0.91824
C          2.61377        17.16128         1.50627
C          2.62975        18.62390         1.15243
C          3.73102         2.05205         0.91528
C          3.72068         3.49667         1.36916
C          4.91439         1.39303         0.71809
C          4.98211         4.22999         0.97658
C          3.67762         6.42186         0.85952
C          3.65991         7.81090         0.63529
C          4.98470         5.72636         1.19079
C          4.88744         8.52300         0.11776
C          3.72349        10.70921         0.60318
C          3.73956        12.14101         0.69727
C          4.94161         9.99973         0.44173
C          4.98762        12.83689         0.66125
C          3.80060        14.99733         0.92700
C          3.84072        16.42645         1.02799
C          5.00984        14.27514         0.75254
C          5.02755        17.12533         0.78117
C          3.77291        19.27334         0.85347
C          5.04448        18.57563         0.73259
C          6.18937         2.07842         0.79192
C          6.15509         3.54593         0.82143
C          7.37993         1.40602         0.81269
C          7.42287         4.25320         0.62818
C          6.20609         6.41409         0.62443
C          6.16588         7.79807         0.42197
C          7.38896         5.67343         0.42253
C          7.41034         8.55041         0.32977
C          6.17424        10.70373         0.37767
C          6.19130        12.11831         0.51262
C          7.41777        10.00629         0.19063
C          7.51662        12.81357         0.69111
C          6.24360        14.98542         0.57969
C          6.24036        16.41180         0.52338
C          7.45831        14.28443         0.40069
C          7.44765        17.11851         0.26499
C          6.22803        19.25530         0.51567
C          7.46869        18.56644         0.30415
C          8.68269         2.11492         1.05667
C          8.62508         3.56955         0.66644
C          9.88865         1.42522         0.48073
C          9.91936         4.33145         0.76518
C          8.55946         6.29493        -0.29829
C          8.65788         7.78391        -0.03172
C          9.87878         5.69354         0.12639
C          9.81470         8.50947        -0.67512
C          8.64019        10.69341        -0.05460
C          8.67019        12.10759         0.02791
C          9.85164         9.99020        -0.40328
C          9.82656        12.83102        -0.35350
C          8.63224        14.97420         0.03734
C          8.62643        16.40428        -0.03248
C          9.80898        14.24303        -0.33301
C          9.86140        17.11671        -0.27623
C          8.67950        19.24842         0.14773
C          9.90115        18.56351        -0.10338
C         11.08960         2.10288         0.25499
C         11.13733         3.54291         0.32670
C         12.31606         1.41177        -0.01382
C         12.33365         4.22655         0.15044
C         11.05751         6.42635         0.03011
C         11.10191         7.80893        -0.31177
C         12.33260         5.70791         0.27097
C         12.31719         8.51329        -0.53734
C         11.04137        10.66726        -0.66471
C         11.04062        12.12022        -0.72973
C         12.29110         9.94698        -0.83924
C         12.17790        12.79454        -1.13575
C         10.91300        14.98984        -0.94111
C         10.99026        16.43467        -0.68427
C         12.13333        14.23486        -1.42981
C         12.35421        17.04094        -0.54623
C         11.13106        19.23093        -0.22395
C         12.35386        18.55022        -0.45290
C         13.53371         2.08887        -0.17311
C         13.55004         3.53350        -0.14029
C         14.77345         1.37338        -0.29636
C         14.75813         4.24807        -0.40413
C         13.60709         6.43980        -0.10542
C         13.53381         7.82851        -0.55278
C         14.79155         5.64039        -0.45384
C         14.74390         8.45976        -1.19428
C         13.49114        10.62873        -1.06619
C         13.45030        12.07386        -1.49917
C         14.75978         9.95816        -1.03254
C         14.67844        12.87377        -1.08123
C         13.41743        14.96155        -1.86683
C         13.43819        16.47112        -1.46267
C         14.70280        14.28248        -1.46724
C         14.74969        17.16818        -1.30129
C         13.58573        19.20409        -0.42079
C         14.81385        18.53203        -0.68730
C         15.99852         2.02011        -0.49033
C         15.98827         3.48912        -0.85052
C         17.23796         1.35057        -0.49479
C         17.26551         4.17938        -0.42281
C         16.00954         6.39853        -0.63264
C         16.01111         7.76025        -0.78628
C         17.28542         5.68072        -0.41342
C         17.25483         8.53544        -0.43303
C         15.97773        10.64924        -0.99622
C         15.97723        12.13211        -0.92433
C         17.23683         9.98457        -0.86613
C         17.24725        12.85661        -1.18520
C         15.98681        14.96472        -1.88027
C         16.03399        16.36492        -1.17434
C         17.25404        14.17404        -1.56436
C         17.21089        17.22620        -1.64494
C         16.04560        19.17014        -0.56098
C         17.29091        18.55861        -0.90733
C         18.49360         2.02600        -0.63294
C         18.52778         3.46601        -0.65008
C         19.71660         1.33628        -0.63801
C         19.72973         4.18073        -0.73400
C         18.53929         6.37042        -0.72514
C         18.52336         7.79936        -0.81024
C         19.73284         5.62815        -0.81963
C         19.69336         8.51038        -0.98345
C         18.45101        10.69015        -0.86528
C         18.49135        12.12520        -1.01799
C         19.71102         9.94571        -0.85217
C         19.72436        12.81214        -0.99508
C         18.54969        14.88617        -1.68512
C         18.50522        16.39472        -1.55859
C         19.83136        14.18303        -1.34587
C         19.53536        17.08218        -0.66718
C         18.50185        19.23341        -0.81372
C         19.76479        18.54085        -0.94515
C         20.96770         2.01683        -0.73555
C         20.97702         3.47129        -0.83123
C         22.16869         1.30842        -0.63530
C         22.17864         4.19708        -0.84363
C         20.97760         6.32555        -0.93246
C         20.96086         7.78587        -1.35317
C         22.17525         5.63002        -0.82484
C         22.20897         8.52946        -0.95801
C         20.92456        10.60740        -0.72574
C         20.89468        12.07207        -0.39130
C         22.18329         9.88277        -0.70064
C         22.21165        12.76306        -0.54588
C         21.10829        14.83507        -1.33236
C         21.40445        16.19629        -1.75153
C         22.25090        14.15350        -0.73761
C         22.36928        16.96359        -1.04022
C         21.00988        19.11619        -1.06063
C         22.28161        18.40582        -0.95507
C         23.45416         1.93520        -0.90100
C         23.46244         3.50233        -1.02327
C         24.72155         1.31557        -0.54924
C         24.73877         4.20634        -0.77909
C         23.44113         6.38470        -0.48716
C         23.50332         7.77306        -1.12267
C         24.73953         5.63565        -0.71654
C         24.72375         8.51955        -0.63157
C         23.43021        10.59930        -0.43862
C         23.40440        12.04598        -0.29394
C         24.65231         9.92733        -0.44045
C         24.58308        12.74786         0.02989
C         23.46051        14.85299        -0.43238
C         23.47819        16.27739        -0.46533
C         24.61052        14.15368         0.03668
C         24.63401        16.98910        -0.07248
C         23.42746        19.09927        -0.58308
C         24.63726        18.41942        -0.21865
C         25.92546         2.03072        -0.58911
C         25.92387         3.47485        -0.71525
C         27.16679         1.35059        -0.39055
C         27.24104         4.19844        -0.77964
C         25.93821         6.36164        -0.58262
C         25.91738         7.80856        -0.44919
C         27.17769         5.66314        -0.41753
C         27.15061         8.50371        -0.14096
C         25.93812        10.72854        -0.36120
C         25.75668        11.95480         0.52354
C         27.15149         9.92885         0.03679
C         27.02729        12.75480         0.69634
C         25.78958        14.87342         0.45940
C         25.79647        16.28686         0.39261
C         26.98480        14.17796         0.85976
C         26.98781        17.00587         0.73318
C         25.83277        19.10213         0.00901
C         27.00397        18.42268         0.44686
C         28.37452         2.04943        -0.16765
C         28.37171         3.44629        -0.14133
C         29.65252         1.33868        -0.02294
C         29.66495         4.18184         0.05650
C         28.32884         6.35254        -0.03741
C         28.33041         7.77179         0.06432
C         29.46894         5.60135         0.61299
C         29.64551         8.51533         0.11217
C         28.27620        10.61023         0.51726
C         28.22042        12.04025         0.81799
C         29.51721         9.90861         0.69022
C         29.36649        12.70481         1.36663
C         28.12303        14.89177         1.35526
C         28.11818        16.34675         1.30456
C         29.26047        14.07795         1.76994
C         29.23632        17.19975         1.68802
C         28.20063        19.13702         0.57149
C         29.31513        18.54994         1.20219
C         30.77586         1.97185         0.36437
C         30.67110         3.37914         0.90808
C         31.95646         4.16776         0.97478
C         30.79033         6.33839         0.68391
C         30.81187         7.71842         0.66071
C         31.96961         5.52236         0.93134
C         31.97259         8.49315         1.02122
C         30.64366        10.56071         1.17644
C         30.55039        11.94375         1.63073
C         31.89289         9.83626         1.25599
C         31.58120        12.51199         2.39326
C         30.27961        14.52893         2.65104
C         30.25329        16.84777         2.61305
C         31.41583        13.77908         2.95104
C         31.34679        17.65703         2.90448
C         30.46410        19.35630         1.45440
C         31.47807        18.91030         2.27599
O         13.18156         6.24764         1.30963
O         17.25636         4.89986         0.84923
O          8.44473         8.11096         1.33992
O         11.06128        14.60067        -2.38792
O         23.50053         2.65601        -2.19348
O         15.22735        12.60002         0.27231
O         18.72287        15.77048        -2.86097
O         13.97912        17.25310        -2.55548
O         19.80184        16.59489         0.42202
O         30.12059        15.69631         3.39640
O         29.00856         5.49532         2.00798
H         28.89577         6.40623         2.35428
O         20.96411         7.72840        -2.82918
H         21.84295         7.35699        -3.08830
O         30.20852         3.18909         2.26873
H         29.86265         4.05432         2.59448
O         26.19467        11.21823        -1.71608
H         26.36345        10.44110        -2.28876
O         23.69230         7.55920        -2.56433
H         23.84279         8.43590        -2.97731
O          9.65334         8.36633        -2.13290
H         10.38569         8.85901        -2.56218
O         12.81076        16.55048         0.77742
H         12.22050        16.93708         1.45966
O         23.36883         6.61597         0.95426
H         23.30708         5.74715         1.40299
O         30.25557         4.31698        -1.26422
H         29.52147         4.51111        -1.89672
O         17.25432         8.60376         1.03956
H         17.23132         7.68319         1.38130
O         13.35925        14.91191        -3.33645
H         12.43619        15.16885        -3.58095
O         13.50074        12.03176        -2.96608
H         13.45120        12.96572        -3.29419
O          7.80217        12.72138         2.15133
H          7.90002        11.76771         2.36383
O         16.23910        16.12620         0.23047
H         15.54155        15.51506         0.55385
O          8.88588         2.09627         2.54627
H          8.00406         2.22712         2.95808
O         30.00179         8.72666        -1.30892
H         29.35452         9.36525        -1.67680
O          3.74273         3.46133         2.83925
H          3.97997         4.37500         3.13388
O         25.41568        11.45889         1.85212
H         25.14970        12.22373         2.40405
O         16.01376         3.54784        -2.31314
H         15.25409         3.02688        -2.64831
O         20.64918        12.13253         1.06903
H         19.77124        11.72507         1.23598
O         20.96746        16.78238        -2.87498
H         20.26005        16.25076        -3.32223
O         14.60710         8.21462        -2.64977
H         14.05323         8.93496        -3.02115
O          4.76162         8.45454        -1.36043
H          3.93032         8.91609        -1.60288
O         17.00649        17.61083        -3.00831
H         16.77824        16.78398        -3.50769
O         15.99877        15.17155        -3.32287
H         15.06013        15.31145        -3.61251
O          8.36007         6.02957        -1.71457
H          8.86785         6.70708        -2.22330
O          5.09761         5.89547         2.66240
H          6.03137         5.71825         2.90879
O         27.61679         4.21728        -2.23938
H         27.39670         3.33111        -2.60209
O          2.64794        17.11008         2.98296
H          2.67535        16.16274         3.23636
O         10.11306         4.54638         2.20768
H          9.95020         3.66880         2.63849
H          0.34065         1.56444         0.60974
H          0.34323         4.02657         0.60582
H          2.46383         0.28353         0.63981
H          0.28854         5.91688         1.05436
H          0.28147         8.34592         0.93404
H          0.30885        10.25510         0.73407
H          0.33812        12.67418         0.87462
H          0.37605        14.60900         0.70893
H          0.40852        17.01600         1.09018
H          1.68215        19.17804         1.23311
H          4.91211         0.31623         0.48787
H          3.76277        20.35800         0.66504
H          7.38268         0.30494         0.80435
H          6.22523        20.35572         0.48985
H          9.86620         0.32832         0.39229
H          8.69380        20.34612         0.22512
H         12.30895         0.31168        -0.02406
H         11.15411        20.32719        -0.12552
H         14.75658         0.27942        -0.17104
H         13.61449        20.27952        -0.18482
H         17.24982         0.25944        -0.34578
H         16.06826        20.19163        -0.14817
H         19.71925         0.23846        -0.56472
H         18.50807        20.29516        -0.51578
H         22.14960         0.24696        -0.34668
H         21.06868        20.21455        -1.14083
H         24.72755         0.26314        -0.22886
H         23.40289        20.19729        -0.51516
H         27.16647         0.25116        -0.36103
H         25.88422        20.18878        -0.15301
H         29.67392         0.27695        -0.31337
H         28.24424        20.19178         0.26390
H         31.73159         1.43081         0.43680
H         32.89946         3.62471         1.14494
H         32.93709         6.03759         1.02932
H         32.93189         7.98421         1.19099
H         32.80500        10.37117         1.55269
H         32.48486        11.93857         2.63530
H         32.16060        14.18707         3.64601
H         32.08400        17.32018         3.64426
H         30.50030        20.36548         1.02074
H         32.35053        19.54357         2.48631
