         630
 CSIRO Nanostructure Databank - Neutral Graphene Oxide Data Set
C         22.96408        27.50211         0.27964
C         22.97164        28.81699        -0.16088
C         22.94979        31.73682        -0.28975
C         22.92535        33.08835        -0.24116
C         23.14045        35.92334         0.49465
C         23.22146        37.19834         0.99202
C         23.59282        39.79862         2.28988
C         23.89983        40.92103         3.01558
C         24.59859        44.70318         4.28245
C         24.46462        46.05464         4.05781
C         25.43799        24.82885         1.17656
C         24.20707        25.52538         1.09050
C         25.39640        27.65744         0.71937
C         24.15817        26.86936         0.72001
C         25.42255        28.95239         0.02764
C         24.16832        29.56306        -0.28893
C         25.33952        31.64248        -0.88989
C         24.15641        30.99015        -0.58426
C         25.36182        33.10954        -1.05121
C         24.08266        33.89158        -0.66327
C         25.49659        35.88668        -0.17602
C         24.26148        35.25967        -0.12072
C         25.69434        37.19666         0.55663
C         24.43569        37.94592         0.92093
C         25.64498        40.17580         0.85308
C         24.54821        39.26038         1.37519
C         25.95435        41.38117         1.71282
C         25.10036        41.65739         2.76435
C         26.19022        44.46696         2.40379
C         25.41691        43.92097         3.43072
C         26.16555        45.89319         2.28517
C         25.25054        46.66936         3.05288
C         25.96511        48.71604         1.94214
C         25.13727        48.07529         2.82468
C         28.00724        23.40067         1.53891
C         27.89189        24.61669         0.65809
C         26.65775        25.43689         0.95411
C         27.94378        27.54238         0.30228
C         26.73773        26.89287         0.84334
C         27.89784        28.88293        -0.14087
C         26.64050        29.56294        -0.29499
C         27.87452        31.57630        -1.25583
C         26.56626        30.79002        -1.17828
C         27.88215        33.11111        -1.23640
C         26.64057        33.83620        -0.96011
C         27.94585        35.90652        -0.72389
C         26.68909        35.19984        -0.64334
C         27.93385        37.38068        -0.65690
C         26.73293        38.08439        -0.09033
C         28.08931        40.14254         0.27654
C         26.90363        39.45548         0.42706
C         28.15413        41.56025         0.65573
C         27.10618        42.18130         1.34466
C         28.35802        44.42178         1.23288
C         26.99594        43.71519         1.32753
C         28.21378        45.89130         0.89149
C         27.11541        46.59636         1.45061
C         28.03976        48.70386         0.55537
C         27.01849        48.00608         1.28706
C         27.99583        50.11728         0.36219
C         30.43274        23.37163         1.24179
C         29.19984        22.79751         1.73622
C         30.40741        24.72349         0.77388
C         29.17672        25.41918         0.63965
C         30.39413        27.47518         0.00693
C         29.16574        26.79611         0.30207
C         30.37463        28.85846        -0.35664
C         29.13648        29.55471        -0.48484
C         30.35840        31.63723        -1.03490
C         29.14068        30.91143        -0.91250
C         30.36909        33.07673        -1.16858
C         29.16669        33.80077        -1.06357
C         30.39705        35.93350        -1.18542
C         29.15892        35.22391        -0.95248
C         30.34574        37.41910        -1.27185
C         29.19456        38.13165        -0.69458
C         30.50498        40.19425        -0.41072
C         29.25693        39.47229        -0.31452
C         30.52259        41.61636        -0.13247
C         29.35201        42.29929         0.29462
C         30.48861        44.42721        -0.09629
C         29.38351        43.70939         0.38786
C         30.33734        45.86666        -0.50550
C         29.22543        46.59075         0.21255
C         30.21548        48.70666        -0.75573
C         29.15767        47.98843         0.06428
C         30.31562        50.17611        -0.40429
C         29.12390        50.82199        -0.04185
C         32.87795        20.56058         1.64681
C         31.70145        21.26780         1.65073
C         32.88360        23.29523         0.93769
C         31.65857        22.65028         1.29177
C         32.87363        24.67183         0.54726
C         31.64253        25.38758         0.46609
C         32.84938        27.40800        -0.28322
C         31.62453        26.75692         0.06765
C         32.83579        28.81767        -0.59135
C         31.60659        29.54214        -0.62137
C         32.83011        31.66240        -1.07094
C         31.60013        30.94464        -0.90953
C         32.82898        33.07257        -1.32493
C         31.61714        33.79182        -1.29938
C         32.82143        35.97713        -1.79135
C         31.58201        35.24011        -1.39562
C         32.90839        37.43334        -1.50070
C         31.65679        38.18874        -1.37590
C         32.95222        40.20412        -0.75917
C         31.68741        39.55808        -0.83616
C         33.02462        41.60923        -0.23058
C         31.72296        42.34723        -0.30052
C         32.92738        44.51593        -0.62235
C         31.70346        43.75386        -0.36972
C         32.89257        45.91992        -0.70858
C         31.63807        46.64632        -0.57084
C         32.73436        48.79695        -1.23684
C         31.55724        48.00417        -0.72928
C         32.78529        50.23004        -0.74592
C         31.56875        50.88745        -0.45328
C         32.79851        52.97438        -0.10155
C         31.61561        52.27778        -0.11958
C         35.41103        19.04485         1.66398
C         35.35082        20.43732         1.26850
C         34.11889        21.17923         1.31268
C         35.34373        23.23126         0.67519
C         34.11208        22.56365         0.97364
C         35.34501        24.60011         0.27742
C         34.09427        25.32112         0.18293
C         35.28322        27.27545        -0.80007
C         34.05451        26.66321        -0.26448
C         35.30440        28.76908        -1.00453
C         34.04877        29.52588        -0.80286
C         35.31585        31.57922        -1.23126
C         34.05194        30.91809        -0.98140
C         35.32091        32.89123        -1.70247
C         34.15557        33.81325        -1.36234
C         35.36062        36.06060        -1.94293
C         34.10924        35.22383        -1.98653
C         35.36993        37.40994        -1.54741
C         34.11325        38.10257        -1.33772
C         35.40027        40.23619        -1.06038
C         34.13865        39.52175        -1.03688
C         35.40866        41.65933        -0.97428
C         34.20457        42.39441        -0.73918
C         35.46228        44.55085        -0.74617
C         34.15985        43.79095        -0.77067
C         35.38072        46.00576        -1.15647
C         34.10192        46.69102        -0.98243
C         35.22482        48.87390        -1.42799
C         34.03725        48.06631        -1.09041
C         35.26388        50.29861        -1.02209
C         34.02348        50.94519        -0.72131
C         35.27484        53.06610        -0.38541
C         34.03424        52.33943        -0.39685
C         35.30556        54.47185        -0.15862
C         37.79461        18.84479         1.05181
C         36.55522        18.31417         1.63515
C         37.79183        20.34346         0.73929
C         36.54628        21.10226         0.94140
C         37.81866        23.18683         0.52863
C         36.57105        22.50862         0.71528
C         37.81998        24.57115         0.20698
C         36.58284        25.22531        -0.01599
C         37.88053        27.35290        -0.61335
C         36.58788        26.55911        -0.63493
C         37.81399        28.82864        -0.66715
C         36.59877        29.48137        -0.90817
C         37.78920        31.61581        -1.13676
C         36.56424        30.88721        -1.09833
C         37.79864        32.93602        -1.68585
C         36.56854        33.37490        -2.17440
C         37.84374        36.06727        -2.10049
C         36.58223        35.53064        -2.38519
C         37.84886        37.41982        -1.68458
C         36.61452        38.11077        -1.49302
C         37.84986        40.25468        -1.41169
C         36.61414        39.53365        -1.28690
C         37.83846        41.65175        -1.48084
C         36.62212        42.38029        -1.27894
C         37.81964        44.50413        -1.71556
C         36.59224        43.77723        -1.36247
C         37.80365        45.99276        -1.76475
C         36.51169        46.69064        -1.51710
C         37.79389        48.92161        -1.61068
C         36.50170        48.15677        -1.72320
C         37.76146        50.31846        -1.12943
C         36.49968        50.98227        -0.92261
C         37.74210        53.10099        -0.52269
C         36.50528        52.38577        -0.60021
C         37.73892        54.51119        -0.31015
C         36.48993        55.16956        -0.14306
C         40.37373        16.13853         1.61909
C         39.16292        16.80681         1.57331
C         40.30151        18.91750         1.08310
C         39.10354        18.18503         1.27267
C         40.28720        20.35208         0.87641
C         39.07555        21.06663         0.77269
C         40.29594        23.20554         0.69729
C         39.06244        22.48212         0.66602
C         40.29006        24.64298         0.51256
C         39.07473        25.30478         0.17279
C         40.28144        27.45186         0.03332
C         39.09303        26.69839        -0.08629
C         40.26230        28.90077        -0.16460
C         39.01812        29.58372        -0.48640
C         40.18934        31.81131        -0.61710
C         38.99156        30.96928        -0.75173
C         40.28336        33.13972        -1.26311
C         39.06109        33.72030        -1.88997
C         40.42111        35.99815        -2.14839
C         39.08528        35.23554        -2.20951
C         40.32933        37.42551        -1.65330
C         39.10986        38.12652        -1.58251
C         40.34293        40.25017        -1.47897
C         39.10433        39.54011        -1.49490
C         40.36037        41.66507        -1.50990
C         39.09815        42.37334        -1.89235
C         40.25563        44.51226        -1.23794
C         39.10331        43.81842        -1.51446
C         40.19962        45.96548        -1.12210
C         39.07093        46.67846        -1.43498
C         40.27897        48.86167        -0.94403
C         39.09279        48.15574        -1.45722
C         40.24301        50.27120        -0.82828
C         38.98315        50.98576        -0.89125
C         40.21292        53.09241        -0.45355
C         38.98525        52.39655        -0.62126
C         40.21010        54.51631        -0.29958
C         38.98226        55.23374        -0.25712
C         40.20984        57.33794        -0.08275
C         39.01838        56.65621        -0.15140
C         42.83644        16.15050         1.37957
C         41.58551        16.83407         1.38758
C         42.78870        18.95408         0.98872
C         41.55544        18.23999         1.15774
C         42.77631        20.37801         0.90468
C         41.52482        21.07369         0.87567
C         42.76379        23.21853         1.08772
C         41.50338        22.49272         0.84599
C         42.75353        24.73061         1.00183
C         41.49258        25.39894         0.59549
C         42.73147        27.58762         0.65874
C         41.48854        26.78174         0.35642
C         42.72993        28.94260        -0.01007
C         41.45996        29.61073        -0.13575
C         42.73538        31.74510        -0.62462
C         41.48400        31.07450        -0.28058
C         42.72194        33.14383        -0.82604
C         41.47861        33.84403        -1.15401
C         42.73225        35.96551        -1.24502
C         41.56749        35.25966        -1.47099
C         42.78354        37.40529        -1.36894
C         41.55292        38.12067        -1.48532
C         42.81406        40.24835        -1.33533
C         41.57618        39.54169        -1.40339
C         42.80931        41.67537        -1.26547
C         41.55556        42.37752        -1.33258
C         42.72072        44.47493        -0.86646
C         41.53140        43.80630        -1.15070
C         42.67406        45.88869        -0.44195
C         41.38514        46.66471        -0.58578
C         42.66940        48.80232        -0.37474
C         41.44798        48.13663        -0.64393
C         42.68245        50.23089        -0.37184
C         41.45927        50.95829        -0.53355
C         42.68899        53.07785        -0.25102
C         41.45811        52.38107        -0.42208
C         42.69070        54.50917        -0.16830
C         41.45049        55.21945        -0.19060
C         42.68621        57.33041         0.00644
C         41.44977        56.63857        -0.08942
C         44.00744        16.82888         1.13279
C         45.24931        18.95671         0.69300
C         44.01900        18.23891         0.93602
C         45.24684        20.38384         0.68317
C         44.01924        21.09903         0.83013
C         45.26760        23.23781         0.87436
C         44.04275        22.51312         0.90650
C         45.24548        24.69340         0.87711
C         44.05859        25.40597         0.82152
C         45.19838        27.50568         0.27581
C         44.03675        26.83021         0.53201
C         45.15980        28.81573        -0.41448
C         43.89887        29.58651        -0.35859
C         45.14738        31.67103        -0.97675
C         43.93510        30.99904        -0.69957
C         45.16449        33.08398        -0.99365
C         43.96315        33.81662        -0.88696
C         45.22413        35.98044        -1.18825
C         43.97031        35.30700        -0.69393
C         45.24912        37.38042        -1.31671
C         44.00522        38.11199        -1.28456
C         45.30646        40.24278        -1.29961
C         44.04984        39.53650        -1.32604
C         45.28973        41.67029        -1.16189
C         44.03041        42.38121        -1.15013
C         45.17851        44.52869        -0.70188
C         43.98787        43.80299        -0.93467
C         45.12969        45.90219        -0.35581
C         43.92878        46.64011        -0.31654
C         45.10582        48.79279        -0.00069
C         43.89947        48.06543        -0.18366
C         45.13672        50.20438        -0.03166
C         43.91338        50.93428        -0.19414
C         45.15679        53.06646        -0.01181
C         43.91811        52.35850        -0.16132
C         45.15972        54.48890         0.01586
C         43.91499        55.22030        -0.04952
C         43.87881        56.64144         0.02467
C         47.64142        18.98796         0.21761
C         46.47137        18.28503         0.47096
C         47.68109        20.39419         0.24037
C         46.47366        21.11047         0.54213
C         47.79688        23.21925         0.70801
C         46.48381        22.52357         0.70240
C         47.83482        24.71914         0.86325
C         46.52062        25.47357         1.16494
C         47.75948        27.53801         0.06193
C         46.51215        26.89408         0.57858
C         47.71683        28.85408        -0.61656
C         46.40998        29.46679        -0.92318
C         47.67190        31.66484        -1.10115
C         46.39091        30.91853        -1.40967
C         47.64596        33.10917        -1.22379
C         46.42256        33.79363        -1.19960
C         47.55043        35.86665        -1.89713
C         46.39270        35.21477        -1.37785
C         47.50763        37.27488        -2.09271
C         46.46408        38.08651        -1.62015
C         47.78259        40.26247        -1.24112
C         46.55313        39.54321        -1.44392
C         47.73465        41.66646        -0.91888
C         46.51047        42.37107        -0.98257
C         47.68831        44.53573        -0.33729
C         46.51119        43.88915        -1.03584
C         47.63429        45.84062         0.07019
C         46.34813        46.55713         0.13430
C         47.63673        48.76508         0.34925
C         46.33835        48.05391         0.32943
C         47.61475        50.19866         0.27685
C         46.38694        50.90845         0.12465
C         47.61531        53.05069         0.25904
C         46.38754        52.33955         0.11569
C         47.58704        54.47060         0.24229
C         46.40366        55.16423         0.12781
C         50.07200        20.43422        -0.49565
C         48.91295        21.11131        -0.04874
C         50.19611        23.20236        -0.03591
C         48.98237        22.51578         0.14559
C         50.33903        24.66195         0.36375
C         49.03035        25.42684         0.31869
C         50.20830        27.47261        -0.44154
C         49.00891        26.74667        -0.04359
C         50.16335        28.85345        -0.65681
C         48.89379        29.55746        -0.75264
C         50.11564        31.78294        -0.63304
C         48.86278        31.00202        -0.95449
C         50.16136        33.20089        -1.19666
C         48.88009        33.81775        -1.48221
C         50.63931        36.20166        -1.72638
C         48.74141        35.09882        -2.04329
C         50.51485        37.57621        -1.39708
C         49.39791        38.38064        -1.78057
C         50.21101        40.26014        -0.53564
C         49.09906        39.61521        -1.19006
C         50.15992        41.66521        -0.27720
C         48.94352        42.38997        -0.50881
C         50.11127        44.47019         0.17947
C         48.91469        43.77040        -0.21662
C         50.10621        45.86913         0.43300
C         48.79961        46.54710         0.73094
C         50.07755        48.74848         0.58666
C         48.82347        48.04974         0.48417
C         50.07179        50.18600         0.60244
C         48.84853        50.90741         0.42803
C         50.08366        53.01039         0.62325
C         48.85049        52.33224         0.42863
C         51.26851        21.10632        -0.66976
C         52.62738        23.19316        -0.58787
C         51.36454        22.49156        -0.41265
C         52.61216        24.59962        -0.70770
C         51.46078        25.35348        -0.37936
C         52.64095        27.44865        -0.97034
C         51.44074        26.74358        -0.60218
C         52.62400        28.89223        -1.01835
C         51.38310        29.59548        -0.86882
C         52.59121        31.70909        -0.88325
C         51.37212        30.99804        -0.90761
C         52.57709        33.13091        -0.71185
C         51.37213        33.88737        -1.03316
C         52.57846        35.96542        -0.31253
C         51.52946        35.34722        -1.05211
C         52.60718        37.35554        -0.12214
C         51.49997        38.14766        -0.55002
C         52.54012        40.17642         0.33474
C         51.39561        39.53169        -0.23948
C         52.54117        41.59526         0.40101
C         51.35057        42.33538         0.12223
C         52.54531        44.48734         0.49466
C         51.34204        43.76424         0.26829
C         52.54170        45.88308         0.57157
C         51.30740        46.58898         0.56700
C         52.53626        48.75554         0.87485
C         51.30181        48.04142         0.67766
C         52.51221        50.17637         1.02957
C         51.28442        50.89662         0.82667
C         51.25441        52.31798         0.82871
C         55.08174        23.14842        -0.70881
C         53.88210        22.50539        -0.54815
C         55.14190        24.50915        -1.23630
C         53.80355        25.28989        -1.21730
C         55.10174        27.42816        -1.31994
C         53.85190        26.75510        -1.16242
C         55.10728        28.92783        -1.54034
C         53.82673        29.60513        -1.12899
C         55.03778        31.68421        -0.54677
C         53.83049        31.00353        -0.90967
C         54.94973        33.02224        -0.11235
C         53.74697        33.75685        -0.25224
C         54.93432        35.84789         0.60252
C         53.61916        35.12172         0.37722
C         54.87501        37.26086         0.86861
C         53.72810        37.99964         0.54572
C         54.86322        40.11468         1.18525
C         53.68398        39.42553         0.71843
C         54.86904        41.56365         1.18705
C         53.74939        42.26583         0.76906
C         55.05420        44.45000         1.01567
C         53.81321        43.73111         0.60824
C         54.95148        45.92381         1.32882
C         53.85410        46.63241         0.51293
C         54.98009        48.75295         1.28751
C         53.78373        48.07594         0.93996
C         54.90170        50.15811         1.52150
C         53.72079        50.84486         1.36163
C         57.63173        24.67029        -1.18463
C         56.39420        25.30854        -1.23700
C         57.58701        27.52464        -1.62051
C         56.31606        26.73812        -1.34897
C         57.56193        28.93477        -1.06253
C         56.34231        29.60677        -0.98207
C         57.49274        31.60429        -0.15559
C         56.29122        30.95652        -0.53149
C         57.44364        32.94596         0.47043
C         56.11521        33.66954         0.52548
C         57.34685        35.72686         1.38841
C         56.10520        35.13329         0.73833
C         57.35616        37.24424         1.39023
C         56.01105        37.90160         1.64107
C         57.28047        40.12727         1.68715
C         56.01742        39.39706         1.48706
C         57.19136        41.48197         2.30445
C         55.98478        42.27834         1.86271
C         57.29613        44.41970         2.09663
C         56.14350        43.72863         1.71401
C         57.40864        45.83123         1.87011
C         56.32434        46.58452         1.12666
C         57.43795        48.68512         1.82073
C         56.24498        48.05977         1.45719
C         58.84278        25.39879        -1.16843
C         60.05184        27.53042        -1.09196
C         58.85073        26.77994        -1.26213
C         60.02411        28.88743        -0.88909
C         58.78331        29.60700        -0.77700
C         59.94166        31.73572        -0.10239
C         58.74150        30.96813        -0.33969
C         59.91350        33.05136         0.26351
C         58.68788        33.74783         0.55604
C         59.83376        35.89502         0.96497
C         58.64301        35.09359         0.90793
C         59.79538        37.22651         1.25942
C         58.54452        37.92429         1.45633
C         59.73079        40.07380         2.32514
C         58.58629        39.40839         1.64954
C         59.68135        41.35076         2.75653
C         58.45173        42.17885         2.72997
C         59.74361        44.45903         2.74684
C         58.46830        43.71303         2.69480
C         59.78323        45.79470         2.54193
C         58.59495        46.53273         2.15339
C         58.60761        47.94698         2.07191
O         30.77947        37.99335        -2.54822
O         45.61049        28.61393        -1.83895
O         35.66672        48.63521        -2.83637
O         48.16041        23.84907         2.00584
O         35.14981        27.84084        -2.14101
O         46.13744        47.15271         1.48813
O         40.72330        31.79472         0.75416
O         41.77940        46.11489         0.72309
O         54.85707        44.11360        -0.40559
O         48.56228        37.88032        -2.78673
O         26.14682        27.62252         1.97057
O         27.90086        32.32775        -2.50583
O         39.17418        34.23237        -3.26640
O         58.23266        42.96673         3.93785
O         24.45487        33.68506        -2.05562
O         49.82170        35.66562        -2.73354
O         26.85623        37.96255        -1.53097
O         42.67758        24.05757         2.30685
O         56.11483        41.70095         3.23572
O         54.34808        24.71306        -2.44884
O         37.41728        26.66088        -1.83172
O         36.52336        34.36733        -3.14424
O         38.66720        48.70710        -2.76514
O         37.66725        19.33683        -0.32522
O         33.27954        35.49681        -3.13214
O         25.40904        42.57252         3.76490
O         56.62766        32.93715         1.71959
O         58.12431        40.15257         0.45610
O         47.31533        27.76281         1.47779
O         37.78271        45.23163        -3.03459
O         54.57154        46.05880         2.71461
H         55.24195        45.60537         3.26904
O         29.88666        45.80590        -1.91425
H         30.57211        45.32098        -2.42249
O         26.35514        30.24991        -2.52206
H         26.58146        30.97527        -3.14948
O         27.71114        24.11965        -0.72102
H         28.50554        23.58911        -0.94434
O         33.29526        41.45409         1.22329
H         33.24409        42.34926         1.62201
O         46.72022        44.20697        -2.46527
H         46.04356        43.71588        -2.97869
O         28.90728        44.37091         2.58840
H         29.77728        44.82219         2.58302
O         46.45522        25.64264         2.60046
H         47.05096        26.39315         2.82752
O         42.64327        27.89288         2.09499
H         42.69611        27.04286         2.58367
O         56.72931        46.49694        -0.26784
H         55.97972        46.85464        -0.80918
O         46.32688        30.87663        -2.86508
H         45.80522        30.07248        -3.09648
O         50.75670        24.64993         1.76921
H         49.98979        24.27981         2.27414
O         43.94894        35.52080         0.76466
H         43.17314        35.03816         1.12193
O         55.71676        37.64566         3.06373
H         56.06894        36.74253         3.26927
O         55.18729        29.11892        -2.99390
H         56.03555        28.69704        -3.28796
O         26.31883        43.96468         0.06680
H         25.62711        43.28034        -0.06258
O         53.09216        34.87961         1.72667
H         53.72300        34.28880         2.19064
O         57.22220        35.34576         2.81473
H         57.08094        34.36212         2.81536
O         25.08168        40.72128        -0.40226
H         25.13701        40.01762        -1.08570
O         32.54109        48.89200        -2.69598
H         33.41779        49.07410        -3.10206
O         26.29444        36.83309         1.85422
H         25.61786        36.34146         2.36657
O         34.43858        34.15549         0.05015
H         34.42450        33.32284         0.56948
O         57.62452        27.70187        -3.09428
H         57.63565        26.80451        -3.49216
O         48.61945        46.38579         2.17947
H         47.69549        46.68584         2.37380
O         35.81626        44.63266         0.70520
H         35.87298        43.70999         1.03708
O         29.74000        48.64062        -2.13886
H         29.68867        47.67837        -2.36566
O         50.09430        31.95231         0.83133
H         49.32193        32.51367         1.05512
O         40.84695        36.15488        -3.54075
H         40.56074        35.33857        -4.01336
O         54.21259        46.64904        -0.90452
H         54.32650        45.69805        -1.16814
O         39.08419        42.38198        -3.37377
H         38.48796        43.11010        -3.65945
H         22.02198        26.93563         0.29942
H         22.01928        29.26929        -0.46936
H         22.05483        31.18355         0.02521
H         22.02001        33.58935         0.12723
H         22.16339        35.42462         0.50772
H         22.30428        37.68424         1.35246
H         22.69809        39.21766         2.55307
H         23.24797        41.25370         3.83412
H         24.03463        44.19908         5.07804
H         23.78057        46.66418         4.66454
H         25.38947        23.73630         1.28776
H         23.27067        24.95239         1.15443
H         25.85501        49.79821         1.79489
H         24.37630        48.63966         3.38288
H         27.09519        22.94449         1.94839
H         27.09647        50.68426         0.63543
H         29.24061        21.87038         2.32510
H         29.07444        51.91880         0.00033
H         32.84848        19.49311         1.90168
H         30.77183        20.74219         1.90598
H         32.77299        54.04052         0.15784
H         30.69220        52.81845         0.12249
H         34.51086        18.57860         2.08717
H         34.37044        55.02634        -0.00867
H         36.56112        17.30843         2.07931
H         36.45723        56.25363         0.02611
H         40.40141        15.05665         1.81161
H         38.23280        16.24228         1.72545
H         40.21635        58.43517        -0.01210
H         38.08167        57.22867        -0.13836
H         42.85205        15.06574         1.55784
H         42.68142        58.42782         0.07416
H         44.95106        16.26750         1.11956
H         44.81266        57.21233         0.10815
H         48.55542        18.41424         0.01689
H         46.50793        17.18803         0.46170
H         48.51970        55.04242         0.32837
H         46.43911        56.26112         0.12816
H         50.04055        19.35631        -0.70013
H         50.11853        54.10723         0.62510
H         52.15303        20.55165        -1.01150
H         52.17980        52.88821         0.98065
H         56.01268        22.63406        -0.43073
H         53.88841        21.45257        -0.23044
H         55.80266        50.71689         1.80697
H         53.72263        51.93097         1.52123
H         57.67872        23.57502        -1.11738
H         57.48675        49.77740         1.93706
H         59.79006        24.85955        -1.02035
H         61.00890        26.98918        -1.04512
H         60.97285        29.41304        -0.71941
H         60.91971        31.26591        -0.26990
H         60.86979        33.57934         0.37473
H         60.80649        35.43446         0.74629
H         60.73135        37.80106         1.28126
H         60.66044        39.50210         2.46216
H         60.56395        41.78432         3.24947
H         60.64550        43.92016         3.06951
H         60.72730        46.34753         2.65583
H         59.53805        48.48261         2.30964
