         429
 CSIRO Nanostructure Databank - Neutral Graphene Oxide Data Set
C          1.41396         2.16636        -1.78569
C          1.38984         3.58882        -1.76434
C          2.59408         1.47468        -1.67513
C          2.54707         4.33149        -1.61336
C          1.35057         6.53962        -1.82545
C          1.35618         7.92240        -1.85284
C          2.53911         5.79873        -1.59246
C          2.53016         8.65852        -1.55967
C          1.43401        10.87608        -1.93173
C          1.41368        12.25086        -1.76819
C          2.54385        10.11140        -1.51076
C          2.48253        12.92900        -1.14218
C          1.35486        15.16310        -1.61065
C          1.58133        16.41295        -2.12126
C          2.31017        14.38605        -0.72853
C          2.81437        17.10383        -1.97222
C          3.08878        18.35297        -2.59907
C          3.83677         2.17035        -1.52609
C          3.81539         3.62964        -1.47342
C          5.03416         1.45838        -1.43162
C          4.99957         4.32352        -1.32432
C          3.72144         6.51387        -1.33961
C          3.71172         7.93227        -1.26103
C          5.06850         5.83242        -1.37364
C          4.88309         8.63969        -0.78641
C          3.67519        10.79623        -0.98326
C          3.62065        12.20359        -0.76766
C          4.84972        10.04290        -0.60715
C          4.71787        12.87596         0.03394
C          3.64391        15.10849        -0.53157
C          3.85326        16.51412        -1.12178
C          4.86301        14.34704        -0.25445
C          5.21361        17.02434        -1.19597
C          4.32005        18.94677        -2.55332
C          5.53223        18.28904        -1.96031
C          6.28925         2.10835        -1.28420
C          6.27961         3.58799        -1.30217
C          7.48301         1.41573        -1.08854
C          7.50845         4.29052        -0.80833
C          6.04640         6.40691        -0.33121
C          5.96292         7.88986        -0.21076
C          7.35506         5.62431        -0.11976
C          6.90941         8.62520         0.49854
C          6.01394        10.74756        -0.12660
C          6.03891        12.15179        -0.00570
C          7.15369        10.00990         0.30476
C          7.24834        12.81067         0.31547
C          6.08395        14.98920        -0.10285
C          6.22699        16.38062        -0.49853
C          7.28881        14.25917         0.28391
C          7.47038        17.07779        -0.24912
C          6.33715        19.22618        -1.02240
C          7.54391        18.48321        -0.47552
C          8.72543         2.05922        -0.77729
C          8.72236         3.48813        -0.52328
C          9.92880         1.33498        -0.68960
C          9.88466         4.16164        -0.21237
C          8.65297         6.27359         0.18263
C          8.72424         7.56499         0.69679
C          9.89969         5.60013        -0.05024
C          9.80871         8.46285         0.45986
C          8.43141        10.62774         0.53937
C          8.45931        12.06443         0.51545
C          9.67785         9.87510         0.52714
C          9.68292        12.79029         0.75040
C          8.48378        14.94432         0.52388
C          8.56822        16.38628         0.33302
C          9.69500        14.21492         0.82744
C          9.74355        17.08927         0.64546
C          8.69933        19.17046        -0.14571
C          9.82793        18.48968         0.39914
C         11.17041         1.95827        -0.38287
C         11.13735         3.40555        -0.06139
C         12.39724         1.29559        -0.27781
C         12.41195         4.17697        -0.07923
C         11.09722         6.32668         0.08144
C         11.06720         7.77294         0.21704
C         12.37674         5.66253        -0.06512
C         12.25731         8.47566         0.30445
C         10.92425        10.66489         0.41284
C         10.92199        12.09490         0.81442
C         12.24772         9.93904         0.34244
C         12.11934        12.79080         1.01852
C         10.90976        14.90590         1.08052
C         10.88073        16.39310         1.34668
C         12.12983        14.20508         1.18305
C         12.21103        17.07344         1.12735
C         11.03666        19.18708         0.63718
C         12.23932        18.49044         0.93295
C         13.64827         1.99081        -0.11532
C         13.68801         3.46007        -0.49070
C         14.84915         1.35832         0.12857
C         14.86330         4.22646         0.14633
C         13.56171         6.34549         0.04253
C         13.52168         7.74533         0.46663
C         14.86228         5.69505        -0.39079
C         14.77934         8.47148         0.78468
C         13.42537        10.60176         1.02593
C         13.45352        12.11827         0.78649
C         14.78464         9.97454         0.59507
C         14.59026        12.76127         1.56772
C         13.39982        14.91738         1.32823
C         13.41385        16.35537         1.26371
C         14.61813        14.23522         1.48766
C         14.67387        17.04296         1.29398
C         13.47676        19.16970         0.94869
C         14.69249        18.47572         1.13746
C         16.13225         2.04245         0.14178
C         16.18578         3.49710         0.02322
C         17.29183         1.32953         0.37837
C         17.36043         4.19181         0.16754
C         16.13830         6.45413         0.01213
C         16.09028         7.79799         0.60680
C         17.40912         5.67538         0.23710
C         17.21615         8.41180         1.10291
C         15.92522        10.59177         1.35956
C         15.87107        11.99627         1.78696
C         17.07207         9.78003         1.66540
C         17.13749        12.75763         1.92155
C         15.86698        14.90195         1.62448
C         15.88948        16.33515         1.48895
C         17.08085        14.16584         1.85689
C         17.13274        17.04856         1.49034
C         15.92513        19.16459         1.13484
C         17.14636        18.47402         1.28755
C         18.61211         1.95395         0.32854
C         18.65965         3.50663         0.22501
C         19.79626         1.30839         0.88160
C         19.83150         4.21097         0.76966
C         18.55715         6.34361         0.88344
C         18.49564         7.71783         1.18308
C         19.77684         5.60567         1.04042
C         19.68897         8.42979         1.55276
C         18.40977        10.56879         1.97850
C         18.38283        12.04212         1.93885
C         19.66311         9.84536         1.73793
C         19.62031        12.71043         1.86513
C         18.32690        14.93372         2.04007
C         18.35909        16.36441         1.68269
C         19.65671        14.17048         2.02435
C         19.59393        17.03460         1.57080
C         18.38436        19.15419         1.24114
C         19.60704        18.45989         1.33661
C         20.98148         2.00656         1.06185
C         21.01822         3.47656         1.05139
C         22.20377         1.29043         1.23586
C         22.19006         4.16085         1.41914
C         20.97433         6.30793         1.37691
C         20.94835         7.72399         1.57482
C         22.20542         5.58801         1.49377
C         22.16462         8.41120         1.83930
C         20.86394        10.58477         1.78607
C         20.86013        12.00458         1.79866
C         22.11382         9.86509         2.06392
C         22.09994        12.72311         1.58623
C         20.87631        14.89301         1.63193
C         20.84416        16.31000         1.54624
C         22.05468        14.16264         1.35142
C         22.06029        17.00706         1.31401
C         20.83566        19.14527         1.18375
C         22.07778        18.46664         1.20064
C         23.42131         1.95295         1.38311
C         23.41861         3.38757         1.85424
C         24.64187         1.28880         1.17783
C         24.69470         4.12932         1.51743
C         23.41704         6.31662         1.69435
C         23.40087         7.71248         1.83878
C         24.72239         5.58560         1.92709
C         24.70085         8.44095         1.99636
C         23.41709        10.68570         2.11258
C         23.32493        12.05040         1.58868
C         24.73272         9.94613         2.09620
C         24.51081        12.63728         0.93822
C         23.22881        14.86981         0.97619
C         23.23476        16.27296         1.05648
C         24.43315        14.13092         0.53601
C         24.43216        17.04335         0.64350
C         23.28578        19.16193         1.11910
C         24.58410        18.42494         1.24363
C         25.85467         2.00606         1.03557
C         25.81958         3.46802         1.13436
C         27.06499         1.34776         0.80454
C         27.01364         4.21412         0.58752
C         25.92069         6.35026         1.41365
C         25.93541         7.74996         1.54309
C         27.06972         5.66127         0.99782
C         27.12659         8.49453         1.28006
C         26.02259        10.74920         1.85909
C         25.84078        12.04329         1.09434
C         27.16277         9.93406         1.28426
C         26.98633        12.74619         0.72330
C         25.71824        14.83651         0.37009
C         25.67396        16.30854         0.22951
C         26.91864        14.16661         0.42206
C         26.91428        17.06135         0.10748
C         25.74790        19.16539         0.66953
C         26.90983        18.48742         0.21956
C         28.31359         2.04276         0.69186
C         28.32210         3.47252         0.72384
C         29.52483         1.33605         0.55712
C         29.53288         4.18108         0.64489
C         28.29175         6.36371         0.85895
C         28.31535         7.77068         1.00555
C         29.51593         5.61805         0.66218
C         29.62289         8.51390         1.04870
C         28.31549        10.64500         0.84869
C         28.27096        12.06777         0.65817
C         29.54186         9.94682         0.58618
C         29.45296        12.77254         0.26900
C         28.20971        14.97567         0.46057
C         28.06913        16.23818        -0.40148
C         29.45205        14.19028         0.11207
C         29.35968        17.02171        -0.55204
C         28.10819        19.20955        -0.02018
C         29.34294        18.55057        -0.42702
C         30.76470         2.01459         0.43476
C         30.77547         3.45221         0.49597
C         31.98480         1.32397         0.24900
C         32.00496         4.13017         0.39071
C         30.72091         6.34120         0.47121
C         30.73754         7.73102         0.43226
C         31.99840         5.59558         0.49401
C         31.89111         8.45158        -0.11298
C         30.68600        10.62175         0.14619
C         30.66980        12.05764        -0.00206
C         31.92515         9.91844        -0.11802
C         31.85630        12.75065        -0.33182
C         30.63807        14.88107        -0.18603
C         30.64262        16.32803        -0.36283
C         31.87002        14.16288        -0.34629
C         31.81892        17.05371        -0.46201
C         30.63154        19.20290        -0.23659
C         31.81441        18.50374        -0.39878
C         33.21759         2.00527         0.10760
C         33.23178         3.44617         0.18891
C         34.42833         1.31147        -0.14287
C         34.47143         4.15295         0.01987
C         33.26755         6.32385         0.22235
C         33.19495         7.71622        -0.29289
C         34.49165         5.56722        -0.05722
C         34.44388         8.47492        -0.41848
C         33.11165        10.56180        -0.46539
C         33.08488        12.02234        -0.84945
C         34.35454         9.85811        -0.60373
C         34.38602        12.75125        -0.56566
C         33.12558        14.86806        -0.43676
C         33.11674        16.35058        -0.57514
C         34.33215        14.17124        -0.43547
C         34.40464        17.14202        -0.45228
C         33.06307        19.22663        -0.42175
C         34.31274        18.64905        -0.41658
C         35.65960         1.99013        -0.30624
C         35.69595         3.42689        -0.19478
C         36.86576         1.30826        -0.59669
C         36.92271         4.11262        -0.29322
C         35.67243         6.31448        -0.24831
C         35.67456         7.72935        -0.39941
C         36.93738         5.57756        -0.10885
C         36.91017         8.40543        -0.69283
C         35.58614        10.62630        -0.90938
C         35.61298        12.08512        -0.61786
C         36.87483         9.87195        -1.00307
C         36.87720        12.79310        -0.53791
C         35.60696        14.85996        -0.03227
C         35.63410        16.35329        -0.17828
C         36.88992        14.17352        -0.43629
C         36.85633        16.93651         0.04036
C         35.44604        19.48978        -0.75265
C         36.74627        19.13265        -0.44576
C         38.07579         2.00013        -0.78668
C         38.12771         3.42680        -0.61278
C         39.27149         1.31028        -1.17073
C         39.36534         4.12061        -0.82194
C         38.23337         6.33973        -0.28360
C         38.11387         7.72355        -0.74161
C         39.49224         5.57309        -0.55835
C         39.30158         8.47007        -1.29679
C         38.13953        10.59689        -0.71083
C         38.23211        12.08817        -0.42486
C         39.23581         9.81758        -0.61363
C         39.28004        12.80785        -1.35131
C         38.12797        14.93605        -0.58704
C         38.10905        16.36939        -0.39487
C         39.29553        14.30605        -1.04017
C         39.19235        17.21169        -0.77675
C         37.99274        19.50066        -0.99587
C         39.14312        18.67259        -0.93780
C         40.42612         2.00050        -1.43991
C         40.48995         3.42187        -1.29062
C         41.65292         4.14683        -1.75820
C         40.73138         6.32067        -1.03273
C         40.66722         7.80497        -1.25376
C         41.73622         5.50239        -1.73731
C         41.77516         8.52009        -1.60172
C         41.05137        10.84880        -1.21496
C         40.71864        12.24481        -1.45580
C         41.79882         9.94922        -1.91926
C         41.70891        13.08070        -1.92814
C         40.43888        15.10253        -1.36686
C         40.41214        16.55119        -1.18497
C         41.56463        14.48403        -1.93312
C         41.57458        17.29445        -1.41556
C         40.35460        19.35637        -1.26848
C         41.55360        18.69871        -1.42474
O          3.45004        16.29410         0.30117
O         18.92377         2.66402        -0.92961
O         36.87856        18.20731         0.60284
O          7.25055         4.22899        -2.25966
O         11.87602         3.69114         1.20574
O          7.66510         7.99674         1.48867
O         32.83159         6.13521         1.61567
O         36.17501        10.25995        -2.22970
O         32.29523         7.87106        -1.43369
O         11.69983        10.54043        -0.87626
O          6.27369         5.62906         0.87596
O         24.19846        13.07817        -0.43778
O         19.05076        14.63377         3.27734
O         40.56819         5.92312         0.37616
O         17.59779         9.95803         3.01532
O         22.67935        10.39291         3.32198
O         17.13508         6.34435        -1.06442
O         14.04364         7.92370         1.90514
O         33.88227        16.72571        -1.78817
O         29.28834        17.83928        -1.75790
O         24.87522         9.11656         3.29276
O         24.67986        16.87308        -0.76853
O         14.86771        12.25610         2.91386
O         40.40752        10.33638        -0.05703
O         37.70811         6.06788         1.05466
O         28.37191        15.45095         1.82800
H         28.45825        14.67041         2.41565
O         29.98923         8.61612         2.48740
H         30.10088         7.70254         2.82883
O         26.47066        11.16828         3.19084
H         26.29807        10.40487         3.79077
O         13.17077        10.34449         2.41281
H         13.85111        10.81882         2.95601
O         10.59974        16.53192         2.79383
H         11.34687        16.11792         3.27650
O         26.77988         4.25568        -0.87342
H         26.76004         3.32639        -1.18858
O          4.28008        12.78358         1.43649
H          4.92956        13.27351         1.98399
O         23.33129         3.31968         3.32973
H         23.97142         2.63727         3.62591
O          5.51933        19.67960         0.05864
H          5.25455        18.90176         0.59296
O         27.67956        15.78846        -1.72180
H         27.86422        16.53506        -2.33775
O         32.95086        12.03683        -2.31180
H         32.20634        11.44569        -2.55214
O         24.89700         5.55981         3.38172
H         24.19924         4.95382         3.73595
O          5.60242         6.22853        -2.67657
H          6.33177         5.59557        -2.90055
O         35.58177        14.68244         1.45739
H         36.50613        14.74918         1.78296
O         13.81258         3.47848        -1.92819
H         13.22491         2.78677        -2.29601
O         14.64678         4.30905         1.57533
H         13.72667         4.04092         1.79741
O         15.00349        10.13463        -0.82900
H         14.84900        11.08738        -1.05445
O         38.65020        12.27596         0.94548
H         39.43538        11.69799         1.08809
O         13.73757        12.38508        -0.62260
H         12.97147        12.00855        -1.12631
O          6.41275        17.95869        -3.07441
H          7.20995        17.52310        -2.70356
O         39.06051         8.70676        -2.72147
H         38.22556         9.21578        -2.82214
O          1.66276        14.34196         0.57530
H          1.87225        15.19603         1.01669
O         24.85601        18.17503         2.68151
H         24.86787        19.04322         3.13670
O         38.74694        12.66715        -2.69791
H         39.30826        13.19295        -3.30539
O         14.80579         5.72876        -1.82544
H         15.73489         5.73173        -2.15562
H          0.46585         1.62282        -1.90114
H          0.41674         4.08660        -1.87002
H          2.60303         0.37571        -1.70424
H          0.40712         6.01523        -2.02840
H          0.41701         8.44778        -2.07247
H          0.56140        10.38381        -2.38154
H          0.52160        12.80540        -2.08699
H          0.34721        14.73921        -1.72725
H          0.78610        16.90148        -2.70563
H          2.26801        18.85004        -3.13883
H          5.00580         0.35863        -1.45652
H          4.47437        19.91439        -3.05273
H          7.46583         0.31610        -1.13323
H          6.66846        20.12930        -1.59175
H          9.91480         0.25528        -0.90214
H          8.76152        20.25500        -0.31873
H         12.41700         0.19595        -0.33678
H         11.07441        20.27269         0.46462
H         14.85826         0.27190         0.31042
H         13.49668        20.25903         0.79660
H         17.23161         0.26279         0.64308
H         15.93408        20.25549         0.99496
H         19.77135         0.22474         1.07156
H         18.39356        20.24283         1.08332
H         22.20305         0.20548         1.04955
H         20.82297        20.23618         1.04108
H         24.63833         0.20384         0.99250
H         23.28145        20.25450         0.98717
H         27.07295         0.24828         0.76590
H         25.79908        20.25587         0.81147
H         29.50597         0.23664         0.52799
H         28.13786        20.28557         0.20458
H         31.97320         0.22485         0.19669
H         30.65570        20.27794        -0.00545
H         34.40814         0.21428        -0.22477
H         32.99715        20.32362        -0.47953
H         36.85097         0.21349        -0.70658
H         35.25301        20.37597        -1.37585
H         39.23852         0.21702        -1.28423
H         38.09328        20.47014        -1.50820
H         41.32455         1.46488        -1.77949
H         42.44847         3.56377        -2.24639
H         42.57584         6.00269        -2.24107
H         42.72968         7.98244        -1.73508
H         42.41604        10.27900        -2.76825
H         42.69307        12.65583        -2.17896
H         42.41594        15.07817        -2.28589
H         42.52896        16.79282        -1.61750
H         40.31841        20.45132        -1.36236
H         42.47868        19.25937        -1.61518
