         210
 CSIRO Nanostructure Databank - Neutral Graphene Oxide Data Set
C         30.43804        31.68036         0.63443
C         30.52102        32.89611         0.94815
C         30.67286        35.93990         1.73638
C         30.65165        37.20963         1.81711
C         30.53830        40.32318         1.34032
C         30.44565        41.56107         1.16040
C         32.74717        29.00416        -0.41867
C         31.64922        29.53184        -0.14191
C         32.77104        31.66640         0.06005
C         31.52207        30.91372         0.16790
C         32.79789        33.03907         0.44781
C         31.65442        33.73411         0.93917
C         33.00590        35.81847         1.47415
C         31.71548        35.09543         1.38067
C         32.99542        37.37014         1.55689
C         31.70115        38.09213         1.58109
C         32.87474        40.23816         1.06929
C         31.67626        39.48897         1.33715
C         32.83067        41.66207         0.83344
C         31.56081        42.38298         0.87403
C         32.76760        44.32651         0.35520
C         31.67398        43.76962         0.61301
C         35.40379        27.46126        -0.89277
C         35.24464        28.88549        -0.74709
C         34.04187        29.56999        -0.52214
C         35.25548        31.69381        -0.44204
C         34.01624        30.99952        -0.32620
C         35.25418        33.17128        -0.32656
C         34.01663        33.85201         0.18507
C         35.37220        35.99321         0.49235
C         34.27480        35.08582         1.03991
C         35.37177        37.35916         0.76960
C         34.18741        38.11447         1.11494
C         35.34623        40.27062         0.71067
C         34.13050        39.51678         0.97791
C         35.31653        41.68483         0.50945
C         34.05564        42.37606         0.54497
C         35.27186        44.47549        -0.02422
C         34.06925        43.78470         0.28286
C         35.40719        45.84499        -0.36780
C         37.81321        27.36438        -1.03461
C         36.48387        26.84951        -0.94682
C         37.74872        28.86493        -1.11112
C         36.48133        29.58251        -0.80910
C         37.76198        31.69642        -0.58043
C         36.48594        30.99257        -0.62895
C         37.75000        33.17279        -0.64744
C         36.52949        33.93556        -0.30702
C         37.76350        36.10216        -0.32683
C         36.53284        35.30591        -0.07365
C         37.71572        37.60889        -0.14562
C         36.68213        38.10459         0.85233
C         37.78518        40.30731         0.46779
C         36.57970        39.60206         0.66614
C         37.78642        41.71117         0.29486
C         36.53883        42.39591         0.26990
C         37.76421        44.48452        -0.34382
C         36.53346        43.80218        -0.02462
C         37.77320        45.87165        -0.69934
C         36.47194        46.43034        -0.66745
C         40.27659        24.61162        -1.24403
C         39.24358        25.30970        -1.15689
C         40.36122        27.43956        -1.25608
C         39.00267        26.70196        -1.08920
C         40.31279        28.85871        -0.71060
C         39.06971        29.61534        -0.96563
C         40.25160        31.70693        -0.28887
C         38.99519        31.04223        -0.60478
C         40.25760        33.09310        -0.10728
C         39.09952        33.88757        -0.50031
C         40.28162        36.07339         0.21916
C         39.09586        35.38128        -0.33437
C         40.25521        37.43739         0.39571
C         39.05821        38.22976         0.21293
C         40.27744        40.36859         0.80501
C         39.04597        39.58088         0.45004
C         40.27089        41.75117         0.21036
C         39.04039        42.41469         0.06588
C         40.25619        44.46640        -0.58979
C         39.02420        43.79624        -0.30328
C         40.24646        45.85338        -0.98165
C         38.98271        46.52953        -1.03324
C         40.17096        48.51159        -1.74181
C         39.13569        47.87332        -1.43492
C         42.82131        24.58826        -0.75631
C         41.56942        25.18508        -0.97421
C         42.72068        27.30829        -0.36663
C         41.56942        26.62400        -0.79719
C         42.65028        28.72355         0.20078
C         41.44370        29.51809        -0.25676
C         42.69620        31.63289         0.24800
C         41.46033        30.94383        -0.07231
C         42.69649        33.01375         0.44571
C         41.42970        33.75734         0.47091
C         42.77113        35.93278         0.73595
C         41.44780        35.25968         0.66615
C         42.77477        37.40078         0.88677
C         41.48077        38.16173         0.82311
C         42.75250        40.26686         0.37922
C         41.54406        39.60776         0.55925
C         42.75302        41.68273         0.06095
C         41.50729        42.39620        -0.06289
C         42.74344        44.42509        -0.77973
C         41.49890        43.76256        -0.48784
C         42.71684        45.80783        -1.19383
C         41.47532        46.53321        -1.30146
C         42.74551        48.46845        -1.98143
C         41.46250        47.93569        -1.70693
C         43.84063        25.24303        -0.40108
C         45.16039        27.32961         0.14216
C         43.95763        26.62032        -0.15693
C         45.19286        28.77656         0.19451
C         43.96263        29.49382         0.13934
C         45.21233        31.57735         0.50395
C         43.96578        30.89088         0.30386
C         45.20537        32.98966         0.96269
C         43.91139        33.74503         0.87324
C         45.23512        35.93563         0.70640
C         43.94943        35.23360         0.78584
C         45.22729        37.38048         0.56318
C         44.02177        38.12914         0.62617
C         45.22903        40.23325         0.21198
C         44.00162        39.52515         0.41647
C         45.20558        41.61312        -0.11136
C         43.98324        42.33533        -0.22422
C         45.23233        44.38243        -0.90260
C         43.97503        43.72256        -0.64796
C         45.19493        45.76142        -1.30804
C         43.96940        46.44584        -1.46862
C         43.79306        47.79103        -1.85818
C         47.53756        27.39452         0.33639
C         46.43943        26.77895         0.25612
C         47.70053        28.78635         0.31608
C         46.44145        29.48466         0.27374
C         47.71549        31.65626         0.41671
C         46.44578        30.90986         0.38939
C         47.73108        33.01684         0.61480
C         46.51943        33.76517         1.13227
C         47.68792        35.92164         0.48275
C         46.44390        35.22368         0.68044
C         47.66694        37.34874         0.38692
C         46.45108        38.09962         0.43815
C         47.71861        40.26211         0.42635
C         46.47336        39.52242         0.31230
C         47.70839        41.66668         0.23733
C         46.51760        42.21743        -0.54142
C         47.72832        44.39054        -0.79792
C         46.48208        43.71937        -0.68771
C         47.58517        45.73323        -1.23845
C         46.49185        46.29961        -1.46494
C         50.22440        28.93125         0.28191
C         48.93841        29.49274         0.29951
C         50.23274        31.60181         0.17504
C         48.98813        30.92308         0.25939
C         50.16546        33.11003        -0.06039
C         49.04795        33.75358         0.77740
C         50.13814        35.94370         0.19964
C         48.94057        35.23925         0.45611
C         50.05478        37.34173        -0.01505
C         48.88270        38.06112         0.25119
C         50.07727        39.99646         1.19710
C         48.93624        39.47464         0.56577
C         49.95317        42.16164         1.23221
C         48.85650        42.53097         0.40625
C         50.19171        44.38112        -0.08353
C         48.92645        43.80077        -0.27541
C         51.35105        29.49362         0.22188
C         52.66064        31.73363         0.13804
C         51.48769        30.89484         0.17197
C         52.55968        32.97712         0.24274
C         51.48533        33.88652         0.19777
C         52.51828        36.16421         0.52799
C         51.44275        35.25272         0.29456
C         52.74383        37.34472         0.88638
C         51.91461        38.46344         0.57292
C         52.24038        40.62659         1.90420
C         51.45882        39.57405         1.28972
C         52.23848        41.86408         1.74880
C         51.24573        42.78156         1.26752
C         51.23994        43.96467         0.49306
O         38.51619        35.92711        -1.57251
O         38.45732        29.36080        -2.29981
O         44.38509        33.18779         2.17231
O         51.10412        38.12230        -0.54949
O         41.14185        34.39289         1.81433
O         49.75718        41.06709         2.07977
O         33.22965        36.51598         2.74118
O         38.54754        33.55885        -1.81365
O         42.05170        37.79279         2.13250
O         34.30504        33.90103        -1.23220
O         42.40572        28.52433         1.63582
H         43.19857        28.09701         2.02443
O         46.71515        41.71658        -1.92503
H         47.55397        42.09934        -2.26092
O         37.19686        37.83343         2.18512
H         36.55939        38.18762         2.84002
O         49.82498        33.31253        -1.44623
H         50.49034        32.85675        -2.00314
O         46.76734        33.87654         2.57468
H         45.87842        33.81897         3.00898
O         37.29593        38.15377        -1.42013
H         37.76503        37.64227        -2.11835
O         40.23879        40.56351         2.26690
H         40.46698        39.70452         2.68589
O         40.53625        27.59196        -2.68915
H         39.81883        28.19483        -3.00577
O         49.44255        33.63534         2.16288
H         48.63495        33.79614         2.70962
O         34.84566        34.52743         2.26042
H         34.70134        35.19513         2.97140
