         404
 CSIRO Nanostructure Databank - Neutral Graphene Oxide Data Set
C          1.32502         4.31011         3.17025
C          0.11748         4.98608         3.02952
C          1.20808         6.75883         1.75027
C          0.05526         6.20297         2.34529
C          1.18490         8.04833         1.04950
C         -0.03679         8.73502         0.86230
C          1.10962        10.65980        -0.09263
C         -0.07700         9.99617         0.29878
C          1.09016        12.01252        -0.60392
C         -0.12663        12.70319        -0.80861
C          1.06541        14.72917        -1.41743
C         -0.13978        14.02062        -1.22795
C          1.02684        16.13580        -1.92216
C         -0.17829        16.94720        -1.71680
C          1.08659        19.06049        -1.78525
C         -0.09295        18.32530        -1.59790
C          1.03584        20.53933        -1.77604
C         -0.02408        21.24311        -1.02576
C          1.14275        23.41678        -1.12549
C          0.02508        22.57304        -0.76858
C          1.17591        24.76885        -0.76286
C         -0.03321        25.44731        -0.34107
C          1.23775        27.43000         0.35045
C         -0.02177        26.69745         0.17612
C          1.22706        28.97009         0.56509
C         -0.03509        29.72239         0.63376
C          1.10793        31.87950         0.36012
C         -0.06957        31.08254         0.57377
C          1.13232        33.27740         0.55131
C         -0.05997        33.99317         0.90579
C          1.21348        35.97822         1.52022
C         -0.02298        35.28817         1.36118
C          1.27172        37.22889         2.19918
C          3.77694         4.22749         2.86365
C          2.50528         4.83996         2.59908
C          3.62352         6.57074         1.18601
C          2.42526         6.05437         1.86401
C          3.64736         7.96142         0.70779
C          2.38209         8.65828         0.59448
C          3.56318        10.62413        -0.37679
C          2.35019         9.97979         0.04417
C          3.56890        11.96707        -0.76779
C          2.31682        12.68651        -0.86387
C          3.55919        14.81686        -1.27073
C          2.28560        14.05810        -1.24039
C          3.56286        16.25657        -1.67960
C          2.30120        16.87921        -2.19043
C          3.61609        19.11125        -2.10284
C          2.29863        18.40316        -2.43379
C          3.59115        20.58273        -2.28238
C          2.28029        21.32061        -2.10768
C          3.64158        23.54277        -1.67164
C          2.30808        22.80054        -1.78480
C          3.64669        24.87290        -1.03586
C          2.42700        25.50600        -0.71894
C          3.66546        27.58049        -0.19982
C          2.46120        26.83945        -0.20730
C          3.63559        29.01546        -0.01941
C          2.44435        29.69146         0.18027
C          3.60397        31.95717        -0.15153
C          2.33524        31.15727        -0.02495
C          3.57563        33.39430         0.15651
C          2.38282        34.02667         0.50072
C          3.63643        36.06109         1.21467
C          2.41377        35.38259         1.02601
C          3.70251        37.23893         2.02432
C          2.47825        37.82381         2.48258
C          6.22992         4.29396         2.89343
C          4.97837         4.76834         2.42165
C          6.18024         6.68021         1.23416
C          4.95917         5.89509         1.45937
C          6.12968         7.91166         0.59610
C          4.84754         8.53673         0.31456
C          6.09950        10.49235        -0.81568
C          4.80616         9.82190        -0.41902
C          6.06439        11.95814        -1.03831
C          4.82702        12.65933        -1.03302
C          6.04925        14.76528        -1.30904
C          4.83348        14.06036        -1.25379
C          6.10865        16.21460        -1.67272
C          4.84809        16.95913        -2.00120
C          6.08169        19.14926        -1.74857
C          4.82195        18.45000        -1.95914
C          6.10361        20.54890        -1.71666
C          4.90311        21.34064        -2.05536
C          6.08557        23.41646        -1.36519
C          4.89641        22.77141        -1.67693
C          6.11443        24.84005        -1.09031
C          4.88598        25.54766        -0.85750
C          6.14882        27.65046        -0.54959
C          4.90267        26.92905        -0.51308
C          6.18789        29.07011        -0.40264
C          4.92803        29.75813        -0.02500
C          6.14526        32.02515        -0.25989
C          4.91059        31.24874         0.00653
C          6.11939        33.38512        -0.13955
C          4.83808        34.12168         0.01319
C          6.15721        36.11008         1.02121
C          4.87161        35.57937         0.59129
C          6.17974        37.20659         1.92173
C          4.95164        37.79083         2.35584
C          8.66622         4.39803         3.00652
C          7.44515         4.87964         2.51563
C          8.66818         6.86009         1.55086
C          7.47978         5.94407         1.43515
C          8.60375         8.12594         0.84770
C          7.37785         8.63450         0.31925
C          8.59593        10.51211        -0.72195
C          7.38628         9.87778        -0.37179
C          8.55670        11.87217        -1.44666
C          7.28212        12.65289        -1.13586
C          8.45814        14.81935        -0.70007
C          7.26262        14.06617        -1.15363
C          8.42427        16.32139        -0.68485
C          7.29172        17.01322        -1.31163
C          8.55008        19.13481        -1.29622
C          7.30249        18.40846        -1.42913
C          8.55351        20.55919        -1.40991
C          7.31870        21.27117        -1.47829
C          8.56878        23.38708        -1.36858
C          7.33268        22.68325        -1.39998
C          8.57372        24.80651        -1.26011
C          7.33895        25.52753        -1.06066
C          8.56192        27.68464        -0.97167
C          7.35231        26.95402        -0.85022
C          8.59949        29.09075        -0.81232
C          7.37708        29.79447        -0.57319
C          8.65040        32.03143        -0.48738
C          7.35670        31.30369        -0.80793
C          8.65757        33.37511        -0.22200
C          7.38775        34.15202        -0.17555
C          8.68204        36.04260         1.05758
C          7.40781        35.55415         0.48907
C          8.65522        37.21925         1.88604
C          7.42201        37.77955         2.29677
C         11.12564         4.51074         3.08878
C          9.89502         5.04917         2.70727
C         11.09025         7.14198         2.03220
C          9.84313         6.35803         2.06764
C         11.07885         8.41648         1.18334
C          9.80844         8.79957         0.54996
C         11.10100        10.19002        -0.95495
C          9.81742         9.85396        -0.39217
C         11.04128        12.22340        -1.60966
C          9.81772        12.71409        -1.22643
C         11.05511        14.83233        -0.52618
C          9.76551        14.06637        -0.63285
C         11.02680        16.36645        -0.43648
C          9.73804        17.10379        -0.55161
C         11.04288        19.08546        -1.39037
C          9.79559        18.47012        -1.08753
C         10.99083        20.49923        -1.83336
C          9.77652        21.26667        -1.49687
C         11.04919        23.39554        -1.64660
C          9.80318        22.67694        -1.53659
C         11.03303        24.81268        -1.50992
C          9.80144        25.49871        -1.35033
C         11.12013        27.69961        -1.21844
C          9.77273        26.96263        -1.37691
C         11.08412        29.10457        -0.78397
C          9.87613        29.78692        -0.76882
C         11.22943        31.96919        -0.53799
C          9.90029        31.27172        -0.73567
C         11.23629        33.42229        -0.15778
C          9.91751        34.15998        -0.04581
C         11.12567        35.96396         1.22783
C          9.89561        35.40705         0.76750
C         11.11011        37.21849         1.93232
C          9.87569        37.81133         2.26843
C         13.59404         4.53343         3.08258
C         12.37179         5.15171         2.79101
C         13.57847         7.09120         1.82700
C         12.37765         6.46431         2.20969
C         13.57369         8.32419         1.06527
C         12.36342         8.90484         0.65988
C         13.59551        10.53271        -0.80978
C         12.33181         9.88351        -0.38768
C         13.58275        12.05325        -1.30104
C         12.31718        12.82660        -1.34114
C         13.50922        14.91361        -0.86563
C         12.30674        14.17147        -0.96153
C         13.42050        16.26311        -0.52392
C         12.27435        17.09249        -0.73743
C         13.51465        18.98794        -2.01063
C         12.30456        18.43273        -1.20326
C         13.55955        20.52695        -2.41776
C         12.25385        21.27334        -2.17856
C         13.52590        23.40433        -1.74647
C         12.28866        22.71622        -1.85577
C         13.53927        24.79392        -1.42615
C         12.28595        25.51624        -1.34420
C         13.48449        27.43946        -0.31703
C         12.29658        26.86771        -1.02155
C         13.49799        28.94302        -0.30127
C         12.35857        29.72039        -0.42823
C         13.54765        31.76678         0.31338
C         12.41322        31.15246        -0.18385
C         13.59301        33.18380         0.62286
C         12.42306        33.95964         0.53722
C         13.58184        35.85758         1.56713
C         12.37903        35.27493         1.07940
C         13.56577        37.18760         2.12445
C         12.32781        37.83149         2.31633
C         16.04976         4.52508         3.06187
C         14.82547         5.15579         2.75468
C         16.05131         7.01115         1.67410
C         14.82704         6.42890         2.08142
C         16.05705         8.27519         0.96430
C         14.82726         8.89692         0.61718
C         16.06973        10.77345        -0.39472
C         14.84854        10.07422        -0.18253
C         16.05263        12.15510        -0.84425
C         14.83662        12.78901        -1.06967
C         16.06557        14.93970        -1.68889
C         14.77818        14.24981        -1.30970
C         16.15397        16.43192        -1.78307
C         15.24345        17.29032        -1.17032
C         16.05487        19.18889        -2.31255
C         14.94926        18.56046        -1.68049
C         16.04696        20.63865        -2.31386
C         14.81308        21.29297        -2.06332
C         16.03448        23.39351        -1.86768
C         14.79734        22.70209        -1.91428
C         16.03965        24.90584        -1.83118
C         14.76684        25.50645        -1.27748
C         16.01426        27.50481        -0.53710
C         14.78765        26.82002        -0.78335
C         16.02585        28.82902        -0.00803
C         14.73962        29.50887         0.24661
C         16.04304        31.64297         0.77223
C         14.74568        30.96678         0.62480
C         16.04149        33.03131         1.08296
C         14.80943        33.77262         1.08693
C         16.03097        35.75741         1.90830
C         14.80799        35.13347         1.50768
C         16.01563        37.11914         2.37929
C         14.78195        37.79877         2.50272
C         18.52090         4.48496         3.02311
C         17.27354         5.10982         2.70120
C         18.52270         6.90397         1.56930
C         17.27958         6.35051         1.98080
C         18.52946         8.11230         0.73226
C         17.27901         8.87137         0.55669
C         18.56450        10.89412        -0.14455
C         17.30625        10.16126        -0.02505
C         18.55417        12.27492        -0.49946
C         17.30400        12.91428        -0.90944
C         18.60771        14.92762        -1.55342
C         17.33512        14.20306        -1.43278
C         18.84675        15.88908        -2.49052
C         17.01988        17.04293        -2.69815
C         18.53662        19.05415        -3.02590
C         17.19480        18.43883        -2.67194
C         18.52255        20.59091        -2.71620
C         17.26829        21.32734        -2.38129
C         18.52156        23.40097        -1.75902
C         17.26852        22.71644        -2.05462
C         18.50978        24.76296        -1.29845
C         17.29134        25.49906        -1.23021
C         18.48969        27.45437        -0.31888
C         17.26911        26.80558        -0.71531
C         18.47970        28.80735         0.14769
C         17.22880        29.50589         0.29106
C         18.48018        31.56003         0.98620
C         17.23609        30.89750         0.70157
C         18.48814        32.93729         1.37652
C         17.26154        33.67319         1.42305
C         18.48025        35.68503         2.20320
C         17.25524        35.04487         1.83884
C         18.45994        37.05019         2.64255
C         17.23164        37.74013         2.73351
C         19.71111         5.07555         2.68090
C         20.98225         7.00447         1.74820
C         19.73547         6.30535         1.95411
C         21.03970         8.23640         1.17800
C         19.86432         8.83397         0.52344
C         20.96332        11.05912         0.27495
C         19.79900        10.28425         0.21664
C         20.93048        12.42426        -0.00095
C         19.74433        13.04541        -0.40039
C         21.00834        15.21599        -0.91447
C         19.68934        14.56446        -0.56283
C         21.16775        16.21926        -1.78723
C         20.04837        16.78690        -2.62599
C         20.79557        19.02880        -1.83459
C         19.72937        18.29416        -2.35409
C         20.87505        20.41509        -1.77831
C         19.79470        21.28073        -2.23989
C         20.92340        23.31488        -1.33238
C         19.72958        22.67988        -1.74238
C         20.92551        24.63072        -0.91661
C         19.72520        25.37938        -0.87471
C         20.91932        27.41451        -0.06507
C         19.71831        26.74858        -0.42082
C         20.91046        28.72519         0.36110
C         19.70132        29.45451         0.47622
C         20.90403        31.50878         1.23609
C         19.70529        30.84059         0.90607
C         20.90877        32.83773         1.63306
C         19.71636        33.58369         1.71235
C         20.90029        35.65187         2.48715
C         19.71647        34.97788         2.13376
C         20.87789        36.99011         2.90776
C         19.68305        37.68577         2.99175
O          2.84942        23.55087        -2.91251
O         14.54659        29.92575         1.66461
O         11.00217         8.46158         2.65673
O          5.36109         9.69738        -1.79237
O         11.32422        20.85490        -3.22652
O         17.87226        16.22070        -3.44491
O         19.40117        21.24934        -3.67654
O          4.74544        35.29001        -0.83825
O          1.65905        16.17784        -3.29612
O         19.29132         7.98036        -0.51773
O         14.56856        16.85902        -0.03308
O          1.41571        28.03069         1.67471
O          8.92707        14.20678         0.55316
O          4.20704         5.61098         0.22812
O          2.86448        31.57615        -1.35458
O         10.47471        27.52395        -2.52383
O          5.05738        30.50620         1.27250
O         11.17565        15.52818         0.75007
O          5.64396        16.40531        -3.08216
O          1.28831        21.07899        -3.14378
O         13.82228        20.59756        -3.81535
O         13.71358        10.91900        -2.19608
O         10.75531        34.28151        -1.24079
O          4.38417        21.06179        -3.40395
O         11.07125        10.92526        -2.15738
O          3.51367        15.92277        -0.25259
O         10.70226        31.76725        -1.87796
O          8.83690        16.93270         0.57875
O         15.15336        14.46812        -2.74061
O          7.41985        35.35344        -0.97680
O          2.14054        18.61205        -3.85647
H          1.68810        17.81131        -4.21477
O          7.68359         5.20985         0.17308
H          6.82376         4.80793        -0.07823
O         13.28948        18.27882        -3.25117
H         13.46873        18.96406        -3.96659
O         19.31605        15.09310         0.74809
H         18.48992        14.64236         1.02294
O          7.20604        31.39750        -2.26434
H          7.49304        32.29078        -2.55235
O         16.07107        25.32008        -3.24852
H         15.35496        24.83576        -3.71350
O         18.75388        18.90212        -4.44794
H         19.28046        19.68731        -4.73380
O         13.32785        27.06019         1.10603
H         13.90752        27.65319         1.63427
O         20.48290        16.76779        -4.00527
H         19.76100        17.19081        -4.53215
O          8.46681        11.59366        -2.86866
H          9.27961        11.09635        -3.11794
H          1.37250         3.36792         3.73433
H         -0.79663         4.57062         3.47598
H         -0.91181         6.71815         2.27932
H         -0.98210         8.27051         1.17108
H         -1.05156        10.48791         0.18496
H         -1.08596        12.19459        -0.64929
H         -1.10517        14.51339        -1.40104
H         -1.14612        16.46007        -1.54214
H         -1.01734        18.86459        -1.34396
H         -0.87954        20.66579        -0.64945
H         -0.80277        23.01862        -0.20027
H         -0.99706        24.93483        -0.46061
H         -0.95948        27.16259         0.50910
H         -0.96099        29.17088         0.84628
H         -1.03706        31.58268         0.71777
H         -1.03180        33.48611         0.84424
H         -0.95355        35.78991         1.66352
H          0.33399        37.68438         2.54918
H          3.80144         3.35723         3.53711
H          2.51898        38.75696         3.06207
H          6.23940         3.46318         3.61624
H          4.99165        38.69382         2.98154
H          8.67592         3.51330         3.66160
H          7.42693        38.67813         2.92913
H         11.14911         3.53060         3.58824
H          9.86400        38.74112         2.85505
H         13.60379         3.54421         3.56363
H         12.30050        38.81737         2.80307
H         16.04202         3.55990         3.58952
H         14.76850        38.82262         2.90438
H         18.50882         3.53086         3.56947
H         17.22281        38.78169         3.08740
H         20.66530         4.60636         2.96120
H         21.89314         6.56115         2.17761
H         21.99127         8.78594         1.18815
H         21.92272        10.60077         0.54721
H         21.86033        12.99979         0.09108
H         21.89539        14.87218        -0.36097
H         22.18533        16.59113        -1.98381
H         21.64930        18.47738        -1.41368
H         21.72545        20.85755        -1.24301
H         21.87585        22.77006        -1.36186
H         21.87839        25.08366        -0.61617
H         21.88409        26.89695        -0.13859
H         21.86861        29.19815         0.61077
H         21.86522        30.98136         1.18749
H         21.87121        33.30335         1.88243
H         21.86875        35.13663         2.44085
H         21.82153        37.48519         3.17619
H         19.66849        38.73255         3.32700
