         324
 CSIRO Nanostructure Databank - Neutral Graphene Oxide Data Set
C          1.76902         3.54854        -2.85290
C          0.56091         4.19471        -2.96680
C          1.41761         6.19861        -1.84843
C          0.37662         5.50530        -2.45690
C          1.23919         7.53152        -1.27946
C         -0.03761         8.08455        -1.08379
C          0.94029         9.96941         0.10007
C         -0.18054         9.24794        -0.32813
C          1.14640        12.14119         1.22785
C          0.30966        12.87358         2.15510
C          1.28996        14.99597         1.49571
C          0.42854        14.20617         2.36896
C          1.54698        16.42667         1.74508
C          0.72942        17.16693         2.62869
C          1.71687        19.25171         1.85449
C          0.81642        18.54447         2.68886
C          1.65645        20.69281         1.72670
C          0.75792        21.50786         2.46797
C          1.28390        23.48072         1.14633
C          0.64381        22.87876         2.25515
C          1.37296        24.98541         0.96753
C          0.14428        25.79974         0.88795
C          1.40020        27.84324         0.28926
C          0.17881        27.13117         0.61019
C          1.40340        29.25534         0.05597
C          4.09196         3.53105        -2.04725
C          2.88592         4.20010        -2.23754
C          3.79754         6.25287        -1.22367
C          2.71820         5.56666        -1.76539
C          3.64634         7.61386        -0.79267
C          2.37652         8.26821        -0.82946
C          3.44312        10.40662        -0.11106
C          2.26058         9.58686        -0.26714
C          3.39763        11.92103        -0.03921
C          2.30759        12.66980         0.69097
C          3.57791        14.90175         0.37586
C          2.34984        14.15912         0.66826
C          3.59020        16.28430         0.37439
C          2.55195        17.08723         0.99921
C          3.63453        19.25104         0.30066
C          2.63100        18.52283         1.04355
C          3.59267        20.62534         0.12996
C          2.45390        21.31276         0.72133
C          3.78464        23.62400        -0.46609
C          2.05289        22.62170         0.36371
C          3.82375        24.97298        -0.07181
C          2.63434        25.68543         0.45306
C          3.80885        27.79876        -0.21931
C          2.59644        27.13009         0.13491
C          3.79996        29.21685        -0.43713
C          2.55672        29.91643        -0.29223
C          6.34617         3.42827        -1.10714
C          5.22090         4.14988        -1.41978
C          5.91523         6.05316         0.11292
C          5.19031         5.65476        -1.19514
C          5.93036         7.58309         0.20493
C          4.74589         8.32212        -0.28862
C          5.96368        10.46436        -0.39243
C          4.67805         9.74606        -0.17395
C          6.00137        11.95760        -0.51183
C          4.68858        12.69316        -0.27565
C          6.01801        14.84392        -0.31430
C          4.85333        14.09061         0.31824
C          6.06315        16.30998        -0.14984
C          4.77154        17.00452        -0.16896
C          6.07946        19.19756        -0.31930
C          4.77378        18.49186        -0.27122
C          6.08767        20.58277        -0.53333
C          4.73216        21.28925        -0.72371
C          6.14148        23.45587        -0.56370
C          4.88979        22.78879        -0.48965
C          6.20437        24.88919        -0.56969
C          5.03861        25.64907        -0.25455
C          6.23295        27.75715        -0.69440
C          5.04009        27.08882        -0.33707
C          6.21582        29.17483        -0.92286
C          4.99574        29.87723        -0.78185
C          8.88371         3.52760        -0.73759
C          7.51541         4.04231        -0.43905
C          8.53029         6.27678         0.20489
C          7.32883         5.42105         0.13275
C          8.49545         7.62900         0.39929
C          7.20192         8.34713         0.37208
C          8.55345        10.48158        -0.09286
C          7.25694         9.72778        -0.19182
C          8.50785        11.96233        -0.09421
C          7.32082        12.64040        -0.30209
C          8.57922        14.88254        -0.39001
C          7.30533        14.10570        -0.52730
C          8.49741        16.30135         0.00527
C          7.27229        17.01414        -0.05775
C          8.50440        19.19505        -0.09650
C          7.28168        18.47997        -0.11187
C          8.57384        20.54808        -0.50196
C          7.33315        21.25315        -0.71816
C          8.33303        23.42364        -1.50046
C          7.29422        22.69741        -0.92080
C          8.51397        24.81440        -1.34355
C          7.42184        25.57477        -0.87166
C          8.65102        27.70229        -1.17769
C          7.44821        27.02661        -0.89300
C          8.65020        29.14341        -1.39920
C          7.42151        29.81685        -1.31702
C         11.38491         3.79668        -0.66477
C         10.00106         4.23456        -0.42375
C         10.87660         6.20045         0.93368
C          9.88624         5.70723        -0.09831
C         10.89632         7.69546         1.11649
C          9.71192         8.41175         0.59824
C         10.97322        10.51190         0.67936
C          9.74086         9.77971         0.46003
C         10.94598        11.94386         0.42174
C          9.78374        12.63465         0.09524
C         10.92866        14.82224         0.70164
C          9.83663        14.11914        -0.08372
C         10.97845        16.32497         0.58460
C          9.67899        16.98959         0.51720
C         11.00472        19.19877         0.52706
C          9.69565        18.53167         0.45767
C         11.05651        20.58360         0.12032
C          9.92021        21.15376        -0.51603
C         11.22310        23.22506        -0.97154
C         10.16340        22.35552        -1.23018
C         11.18364        24.63348        -1.46574
C          9.82154        25.43598        -1.64430
C         11.04973        27.48612        -1.06107
C          9.85387        26.90074        -1.36316
C         11.10117        29.60516        -1.38764
C          9.81544        29.91024        -1.83420
C         13.87945         4.42959        -0.33940
C         12.42288         4.43370        -0.04939
C         13.42796         6.21327         1.28898
C         12.16105         5.48742         0.96019
C         13.38540         7.69333         1.37351
C         12.19649         8.40113         1.24123
C         13.40080        10.60577         1.26499
C         12.14838         9.84328         1.04739
C         13.48227        12.00485         0.80630
C         12.24910        12.66203         0.37490
C         13.47111        14.90665         0.75685
C         12.25298        14.17437         0.39576
C         13.41593        16.30474         0.91154
C         12.14743        17.03653         0.84401
C         13.34736        19.26865         1.42589
C         12.14663        18.49274         0.89305
C         13.45452        20.71113         0.82157
C         12.29897        21.31503         0.20869
C         13.53331        23.45687        -0.14352
C         12.33632        22.68165        -0.25883
C         13.62205        24.83905        -0.60377
C         12.45174        25.42762        -1.29457
C         13.51027        27.84054        -0.83893
C         12.37602        26.94523        -1.26538
C         13.57893        29.22380        -1.42914
C         12.40872        29.95213        -1.81803
C         16.13158         3.51091         0.21441
C         14.86466         4.02015         0.77604
C         15.66252         6.38759         0.05334
C         14.55379         5.50254         0.55143
C         15.89417         7.68069         0.80991
C         14.73442         8.33478         1.64076
C         15.97278        10.62215         1.34749
C         14.68690         9.87038         1.54015
C         15.93096        12.06082         1.11006
C         14.67532        12.73305         0.89701
C         15.90654        14.88784         0.99029
C         14.68622        14.17931         0.83171
C         15.88519        16.30496         1.10768
C         14.63815        17.01677         1.08806
C         15.84028        18.93147         1.79299
C         14.62037        18.41055         1.37038
C         15.86868        21.10458         1.55411
C         14.59984        21.53184         0.96525
C         15.90954        23.60627         0.57750
C         14.64350        22.85213         0.43631
C         15.95484        25.05006         0.20846
C         14.72820        25.62296        -0.36614
C         16.07580        27.74287        -0.78551
C         14.77506        27.09883        -0.54136
C         16.08254        29.06372        -1.31706
C         14.85497        29.74951        -1.63882
C         18.17365         3.68587        -1.13765
C         16.99563         4.27161        -0.52022
C         18.12940         6.52405        -0.76050
C         16.87096         5.75348        -0.56823
C         18.19248         7.89544        -0.43838
C         17.16629         8.43235         0.50590
C         18.32404        10.70162         0.32404
C         17.25605         9.88504         0.86671
C         18.36972        12.06309         0.65590
C         17.14740        12.76073         0.98304
C         18.39178        14.89549         0.98045
C         17.15594        14.19016         0.97786
C         18.39414        16.31063         1.13598
C         17.13023        16.99883         1.22193
C         18.33610        19.17997         1.26604
C         17.10276        18.37649         1.50320
C         18.35217        20.68696         1.09425
C         17.10121        21.50132         1.11802
C         18.48231        23.53098         0.44093
C         17.16902        22.81691         0.47256
C         18.46630        25.03165         0.42075
C         17.24736        25.71623        -0.02875
C         18.55988        27.69926        -0.72569
C         17.28846        27.04360        -0.50660
C         18.55435        29.01992        -1.27847
C         17.32917        29.67607        -1.56272
C         19.19443         4.45170        -1.60217
C         20.34400         6.65856        -1.75266
C         19.22236         5.88856        -1.39070
C         20.37182         8.02554        -1.49477
C         19.32594         8.65584        -0.79869
C         20.71470        10.74141        -0.21774
C         19.37236        10.16055        -0.61278
C         20.79805        12.00093         0.27407
C         19.60901        12.78985         0.55658
C         20.84743        14.92695         0.97287
C         19.63432        14.17419         0.84097
C         20.83888        16.27514         1.22742
C         19.62173        17.03196         1.29280
C         20.79454        19.24302         1.50378
C         19.62516        18.45989         1.41850
C         20.80863        20.63545         1.40015
C         19.65456        21.42250         1.15111
C         20.93715        23.51632         0.59146
C         19.71548        22.80350         0.84159
C         20.98230        24.81988         0.16357
C         19.81697        25.71745         0.21319
C         20.99559        27.72552        -0.72800
C         19.80010        27.06079        -0.43382
C         20.98937        29.01732        -1.28451
C         19.79475        29.66224        -1.54896
O          3.72064        12.56240        -1.33321
O         17.07167         7.55024         1.67594
O          9.26973        22.69902        -2.24419
O         19.15324        25.67921         1.53014
O         15.78563         6.38289        -1.39640
O         12.71280        26.22979        -2.49003
O         10.56152        24.88752        -2.75817
O         15.80756        20.11600         2.53675
O         13.93006        10.44611         2.64527
O         15.86144        24.60058         1.64636
O          2.38760        25.48657         1.90839
O          5.94793        11.12711        -1.70473
O          9.37733        17.82181         1.69742
O         12.37044        13.46817        -0.86642
O         16.99798        10.16855         2.27979
O         13.94068        27.73927         0.54111
O         11.06828        28.66991        -0.31823
O          0.66491        10.86008         1.11663
O          7.36369         4.26327         1.03980
O         18.28114        19.80070        -0.09791
O          4.47307        17.69208        -1.46192
O          8.12345         9.83387        -1.35353
O          9.60900        14.60816        -1.42601
O          6.33469         8.13918         1.51887
O          6.42974        14.44562        -1.66073
O         10.46216         6.75240         2.18553
O         12.77094         5.35854         2.28661
O          2.53962        23.11276        -0.85163
O         17.87974        22.96417        -0.79387
O          1.15042        14.72485         0.07287
O         15.00915         8.02474         3.01815
H         15.91825         8.35120         3.21122
O          4.35855        21.09999        -2.10831
H          3.50639        21.56698        -2.24821
O          5.23576        13.84983         1.71332
H          5.31622        14.71328         2.17146
O          5.96446         6.27052        -2.26460
H          5.47885         6.14470        -3.10690
O         13.05826        19.48774         2.83843
H         13.86451        19.89129         3.23412
O         19.07616        10.69879        -1.95128
H         19.15752        11.67516        -1.89982
O         10.34464         6.36771        -1.33282
H          9.70725         6.16049        -2.04895
O         10.61861        14.53916         2.10504
H         11.08568        15.19258         2.66799
O          5.15805         5.54721         1.21395
H          5.69818         4.83620         1.63536
O         14.41698         3.32450         1.88849
H         13.68481         3.84546         2.30636
H          1.89304         2.52287        -3.22852
H         -0.28919         3.68846        -3.44554
H         -0.61412         5.96796        -2.56063
H         -0.93792         7.54912        -1.41242
H         -1.17816         9.59303        -0.02723
H         -0.40153        12.27830         2.74451
H         -0.12300        14.68681         3.18813
H         -0.02547        16.65381         3.23931
H          0.13213        19.09253         3.34965
H          0.16728        21.05716         3.27703
H          0.01715        23.48509         2.92373
H         -0.82334        25.29611         1.03194
H         -0.76303        27.70020         0.58513
H          0.46152        29.81238         0.16647
H          4.17076         2.47253        -2.33869
H          2.53942        31.00324        -0.46015
H          6.39318         2.35668        -1.35771
H          4.97945        30.96417        -0.95348
H          8.96492         2.49399        -1.10963
H          7.39505        30.89800        -1.52146
H         11.56793         2.99833        -1.40021
H          9.64396        30.77210        -2.49679
H         14.21587         4.28594        -1.37949
H         12.54281        30.82801        -2.47110
H         16.33424         2.43763         0.34838
H         14.94314        30.76137        -2.06355
H         18.21510         2.59049        -1.22932
H         17.35719        30.68874        -1.99199
H         20.06422         3.98296        -2.08485
H         21.19225         6.17610        -2.25878
H         21.23745         8.61748        -1.82265
H         21.63278        10.17698        -0.43721
H         21.78771        12.44136         0.46441
H         21.81315        14.40838         0.89582
H         21.80054        16.79329         1.34487
H         21.76572        18.74080         1.61938
H         21.78667        21.13448         1.45397
H         21.88396        22.95771         0.62739
H         21.94222        25.22422        -0.18939
H         21.95920        27.24965        -0.49951
H         21.94465        29.51780        -1.49443
H         19.79167        30.67692        -1.97196
