         424
 CSIRO Nanostructure Databank - Neutral Graphene Oxide Data Set
C          1.19769         4.04923         2.31081
C          0.01041         4.75030         2.26387
C          1.17555         6.84284         1.75663
C         -0.00453         6.13672         1.99698
C          1.18672         8.26925         1.46567
C          0.00347         9.02675         1.39945
C          1.23044        11.07457         0.89029
C          0.02885        10.39747         1.13673
C          1.26852        12.51903         0.65496
C          0.12348        13.33090         0.84909
C          1.31745        15.30079         0.05454
C          0.14636        14.68138         0.54682
C          1.31914        16.67501        -0.42589
C          0.18203        17.49434        -0.33873
C          1.22683        19.28588        -1.62721
C          0.17354        18.79833        -0.89571
C          1.17371        20.58197        -2.40297
C         -0.06919        21.38322        -2.14720
C          1.16886        23.50189        -2.14023
C         -0.05692        22.72369        -2.04577
C          1.12382        24.88981        -2.03072
C         -0.08929        25.64172        -1.85590
C          1.09925        27.65661        -1.07444
C         -0.09181        26.96755        -1.48752
C          1.12839        28.96477        -0.59884
C         -0.05367        29.80857        -0.67686
C          1.04518        31.55045         0.71080
C         -0.08925        31.04586        -0.14507
C          1.06924        33.05775         0.84216
C         -0.12375        33.76580         0.99542
C          1.07532        35.86042         1.29560
C         -0.12899        35.15149         1.19885
C          1.09485        37.28426         1.53163
C          3.65338         4.02087         2.22137
C          2.43898         4.70989         2.07803
C          3.63371         6.80186         1.53982
C          2.43020         6.12947         1.77481
C          3.65938         8.21005         1.29659
C          2.42968         8.93382         1.23543
C          3.68826        10.95560         0.59209
C          2.45245        10.32560         0.90254
C          3.66444        12.28902        -0.10557
C          2.46333        13.13414         0.23662
C          3.73615        15.14218        -0.47617
C          2.49818        14.51881        -0.06257
C          3.72574        16.49687        -0.93027
C          2.50706        17.20422        -1.00563
C          3.73654        19.24198        -1.87644
C          2.45077        18.44248        -1.86195
C          3.71247        20.65215        -2.12290
C          2.45027        21.38068        -2.20215
C          3.69041        23.51163        -2.39067
C          2.41987        22.76113        -2.24717
C          3.65919        25.00983        -2.28107
C          2.34981        25.76928        -2.16764
C          3.63815        27.47599        -0.68256
C          2.34449        26.85182        -1.10234
C          3.62012        28.90586        -0.27785
C          2.37509        29.59292        -0.17137
C          3.57141        31.64793         0.45768
C          2.36371        30.93720         0.28279
C          3.55675        33.05305         0.80238
C          2.30861        33.74833         0.93960
C          3.54697        35.84598         1.36892
C          2.30939        35.15310         1.18307
C          3.53889        37.28205         1.61080
C          2.26962        37.96156         1.67299
C          6.10172         4.00686         2.29505
C          4.90272         4.65878         2.03167
C          6.12671         6.84303         1.68670
C          4.91126         6.01846         1.36353
C          6.14233         8.20897         1.40665
C          4.89754         8.89578         1.13149
C          6.17179        10.96980         0.60188
C          4.90724        10.26883         0.75590
C          6.16089        12.37343         0.20143
C          4.96722        13.04127        -0.03941
C          6.18737        15.09781        -0.69577
C          4.95605        14.42694        -0.40839
C          6.18530        16.46020        -1.13162
C          4.95681        17.15401        -1.28413
C          6.21126        19.18877        -1.90556
C          4.95069        18.53574        -1.68503
C          6.18079        20.58624        -2.37006
C          4.93365        21.35952        -2.23501
C          6.18101        23.50977        -2.38811
C          4.99220        22.78902        -2.28919
C          6.16707        24.98543        -2.27447
C          4.91168        25.67990        -1.86610
C          6.15914        27.45962        -0.67593
C          4.90443        26.85159        -1.16548
C          6.10884        28.87016        -0.06563
C          4.82240        29.59732        -0.04572
C          6.06060        31.71051         0.39998
C          4.82282        30.98637         0.25956
C          6.03763        33.08792         0.75660
C          4.77108        33.75437         0.97584
C          6.02678        35.81264         1.75878
C          4.75557        35.14392         1.30042
C          5.99904        37.32308         1.68607
C          4.73121        37.98256         1.72485
C          8.57330         4.05080         2.40412
C          7.35764         4.69327         2.27078
C          8.65086         6.93777         2.07886
C          7.30891         6.17081         2.19405
C          8.61554         8.28088         1.50154
C          7.38649         8.94597         1.32041
C          8.65443        11.10808         0.97161
C          7.36300        10.32433         0.90366
C          8.63102        12.38339         0.16360
C          7.41583        13.05634        -0.03161
C          8.64260        15.03635        -0.88937
C          7.41351        14.39612        -0.54501
C          8.63307        16.37988        -1.35891
C          7.43412        17.10657        -1.43410
C          8.69169        19.22137        -1.94423
C          7.42842        18.50743        -1.80447
C          8.71281        20.58968        -2.16520
C          7.48967        21.31778        -2.54025
C          8.64073        23.42199        -1.74277
C          7.54228        22.84548        -2.65947
C          8.69043        24.92132        -1.77668
C          7.47559        25.69716        -1.90561
C          8.62683        27.62200        -0.78218
C          7.44171        26.97134        -1.16290
C          8.58983        28.97911        -0.28434
C          7.36058        29.63524        -0.06149
C          8.54019        31.75559         0.20682
C          7.31482        31.03441         0.18294
C          8.47690        33.21971         0.29908
C          7.24074        33.85735         0.77184
C          8.47798        35.95121         1.26046
C          7.27347        35.21100         1.16382
C          8.46076        37.33537         1.67896
C          7.18744        38.01438         1.75626
C         11.04156         4.01578         2.27942
C          9.84064         4.73260         2.26747
C         11.08988         6.78673         1.67147
C          9.87596         6.13989         2.00390
C         11.06426         8.16970         1.27281
C          9.87003         8.88052         1.13872
C         11.03706        10.85714         0.24025
C          9.88297        10.27167         0.70858
C         11.08643        12.25159        -0.13157
C          9.85622        12.99144        -0.22809
C         11.12929        14.95504        -1.01959
C          9.86955        14.31322        -0.74714
C         11.15906        16.30710        -1.42666
C          9.89939        16.97631        -1.92426
C         11.16398        19.13182        -1.78483
C          9.94642        18.48116        -1.82173
C         11.15389        20.62695        -1.58510
C         10.02544        21.31794        -2.33447
C         11.17566        23.42558        -1.68940
C          9.99544        22.77863        -1.92162
C         11.23733        24.90607        -1.58775
C          9.93213        25.65888        -1.58245
C         11.10254        27.64700        -0.66593
C          9.90032        27.01224        -1.01953
C         11.07137        29.01693        -0.24994
C          9.82298        29.69235        -0.13947
C         11.03277        31.81650         0.30832
C          9.78289        31.09761         0.11514
C         11.02499        33.19079         0.53630
C          9.79144        33.97188         0.46623
C         10.92561        35.95533         1.45358
C          9.75197        35.32359         1.06500
C         10.91812        37.33379         1.86279
C          9.65405        38.00249         1.93397
C         13.49365         3.92738         2.09714
C         12.30241         4.65512         2.05091
C         13.56083         6.69791         1.37724
C         12.31546         6.06157         1.72723
C         13.57640         8.04883         0.93700
C         12.36126         8.92645         1.11852
C         13.54261        10.78475        -0.04400
C         12.26175         9.99722         0.03004
C         13.56627        12.12901        -0.29778
C         12.31824        12.87609        -0.41538
C         13.60672        14.89416        -1.04840
C         12.35126        14.24104        -0.81427
C         13.62222        16.28375        -1.33541
C         12.39371        16.99437        -1.50243
C         13.65535        19.09383        -1.70939
C         12.41501        18.41555        -1.70395
C         13.74071        20.57181        -2.01273
C         12.46051        21.33858        -1.81510
C         13.67819        23.45924        -1.41555
C         12.46522        22.71597        -1.69036
C         13.65657        24.79758        -1.00009
C         12.42630        25.56161        -1.01719
C         13.53666        27.59611        -0.18057
C         12.36009        26.91780        -0.66437
C         13.53103        28.95082         0.15916
C         12.28920        29.70453         0.08952
C         13.47975        31.73584         0.98029
C         12.26502        31.07253         0.37198
C         13.53938        33.22108         0.80877
C         12.28151        34.01595         0.57572
C         13.46015        35.98385         1.54098
C         12.19812        35.15345         1.58512
C         13.40621        37.37600         1.87422
C         12.13246        38.00507         2.08320
C         15.89401         3.75177         1.33750
C         14.83452         4.58618         2.01383
C         15.97907         6.57518         1.01171
C         14.77975         5.97285         1.41540
C         15.98598         7.90843         0.55532
C         14.76990         8.62923         0.50732
C         16.04083        10.76389         0.24562
C         14.80586         9.97647        -0.17213
C         16.05010        12.12019        -0.42007
C         14.84259        12.80588        -0.55282
C         16.08167        14.84293        -1.21063
C         14.83759        14.17972        -0.94875
C         16.08613        16.24626        -1.44163
C         14.87395        16.96919        -1.46294
C         16.13577        19.11278        -1.43092
C         14.87057        18.39683        -1.60505
C         16.11983        20.48245        -1.17308
C         14.82279        21.23347        -1.14181
C         16.14525        23.35087        -0.73489
C         14.99764        22.72363        -1.50009
C         16.08964        24.75076        -0.42354
C         14.85829        25.43241        -0.51000
C         16.08197        27.55841         0.25217
C         14.74628        26.78649         0.03049
C         16.01315        29.00676         0.21520
C         14.78095        29.66637         0.40268
C         15.99418        31.80355         0.72234
C         14.78184        31.06621         0.63890
C         15.98299        33.22089         0.98559
C         14.70725        33.90649         1.03878
C         15.90617        36.06072         1.40929
C         14.67367        35.34628         1.29124
C         15.86308        37.46447         1.71682
C         14.60953        38.09723         1.93886
C         18.15210         3.54285         0.38667
C         17.05503         4.32310         0.91891
C         18.39742         6.39551         0.33102
C         17.27466         5.80773         1.15514
C         18.44406         7.77671         0.08266
C         17.24437         8.58343         0.22857
C         18.59792        10.67408        -0.02062
C         17.28593         9.94287         0.03331
C         18.49567        11.98278        -0.76201
C         17.29599        12.71444        -0.81591
C         18.56837        14.79544        -1.31357
C         17.30055        14.09911        -1.21133
C         18.60895        16.20788        -1.39183
C         17.36884        16.95371        -1.81136
C         18.59371        19.06843        -1.10743
C         17.36585        18.39302        -1.37725
C         18.59566        20.45528        -0.77814
C         17.28514        21.12197        -0.48512
C         18.53470        23.28410        -0.15851
C         17.30939        22.62857        -0.53526
C         18.50957        24.67767         0.11805
C         17.30899        25.40937        -0.00443
C         18.57079        27.52932         0.22086
C         17.34557        26.83559         0.10072
C         18.61291        28.98856         0.06066
C         17.23513        29.77817         0.04169
C         18.47206        31.87918         0.59058
C         17.24383        31.17631         0.45810
C         18.44486        33.28904         0.86681
C         17.17890        33.95404         1.02880
C         18.36011        36.11617         1.36680
C         17.14626        35.38640         1.25984
C         18.31482        37.52909         1.62923
C         17.07758        38.17667         1.80865
C         19.31469         4.12799        -0.02376
C         20.60931         6.15746        -0.67633
C         19.45923         5.56299        -0.09043
C         20.71331         7.52626        -0.81090
C         19.64038         8.39130        -0.42945
C         20.93179        10.46727        -0.93171
C         19.73202         9.80772        -0.51255
C         20.96103        11.78660        -1.26994
C         19.69091        12.56075        -1.46703
C         20.99328        14.74989        -1.13477
C         19.78104        14.05930        -1.23188
C         21.01825        16.14389        -1.08992
C         19.83527        16.89963        -1.24998
C         21.03122        19.09323        -1.00155
C         19.83944        18.35809        -1.15863
C         21.02134        20.45586        -0.74036
C         19.80020        21.16702        -0.57654
C         20.98739        23.33008        -0.05816
C         19.77197        22.57300        -0.21767
C         20.99181        24.63765         0.31149
C         19.72642        25.33506         0.73294
C         20.89892        27.58568         0.89977
C         19.76340        26.84280         0.56145
C         20.89727        28.99297         0.91672
C         19.78628        29.73664         0.50328
C         20.91344        31.94344         0.68153
C         19.73085        31.18251         0.55634
C         20.87923        33.31898         0.85436
C         19.65813        34.01960         0.97753
C         20.79491        36.22082         1.33097
C         19.62612        35.45900         1.22596
C         20.74644        37.60824         1.57497
C         19.53793        38.25638         1.72570
O          3.72443        24.37854        -3.60214
O         18.00063        29.47588        -1.16826
O          6.13525        27.68182         0.78642
O          6.90436        25.72406        -3.29927
O          2.89014        26.53873         0.20636
O         15.30120        26.96828         1.36243
O         10.79288        25.56363        -2.83005
O          7.92654         6.81689         3.35135
O          9.11069        33.90338        -0.84201
O          6.81283        20.74380        -3.71629
O         10.30687        21.30882        -3.75591
H          9.63225        21.88620        -4.18747
O         15.96927        11.02330         1.67744
H         16.87097        11.31224         1.95349
O         12.38595        34.63965        -0.73819
H         12.17072        33.96771        -1.41822
O          9.85226        16.67009        -3.36995
H         10.56628        17.18508        -3.80341
O         15.30520         4.76204         3.42370
H         14.60681         5.26294         3.89774
O          7.94425        23.13094        -4.01537
H          7.29673        22.68420        -4.60512
O          6.11052        35.50052         3.20336
H          5.30467        35.86906         3.62449
O         17.40532        16.96425        -3.29448
H         17.36695        16.02995        -3.59130
O          8.20940        23.05680        -0.37886
H          9.00232        23.01285         0.19788
O          2.20740        26.50604        -3.41446
H          2.46881        25.88650        -4.13379
O         15.43483        22.80905        -2.90180
H         15.45822        23.75761        -3.14960
O         10.86053        20.83235        -0.15997
H         11.66716        20.58914         0.34450
O         19.61099        25.12204         2.19063
H         19.48212        24.15990         2.33292
O          8.76486        11.53550         2.38119
H          9.65947        11.92004         2.50075
O         12.14838        34.51322         2.90477
H         12.13047        35.22258         3.58188
O          4.98979         5.72537        -0.08467
H          4.18776         5.21065        -0.31770
O         14.07418        20.62328        -3.41915
H         14.45979        21.51134        -3.61633
O          1.13314        20.23884        -3.82499
H          1.75167        19.47648        -3.96127
O         13.30163        31.56615         2.44821
H         12.79690        32.34763         2.77339
O         12.56097         9.65552         2.36798
H         12.66554         9.00020         3.08881
O         14.94449         9.69533        -1.59805
H         14.11251         9.24283        -1.87085
O          0.79209        31.04838         2.07063
H          0.81908        30.06856         2.02850
O         17.69820         5.94861         2.54849
H         16.98795         5.52763         3.09777
O         14.33515        21.17207         0.22934
H         15.12726        21.23070         0.82115
O         18.89932        11.03567         1.41126
H         19.16069        10.20549         1.86669
O         17.01228        20.85355         0.98170
H         17.19965        19.90064         1.13193
O          2.33311        17.90365        -3.25919
H          1.57650        17.27787        -3.25930
O          3.50214        11.95519        -1.54139
H          2.65636        11.46595        -1.63046
O         19.40946        12.44240        -2.91521
H         20.18031        12.81606        -3.39285
O         12.11974         9.30062        -1.25087
H         11.81733         9.95696        -1.91383
H          1.20118         2.97323         2.53651
H         -0.94121         4.23152         2.44605
H         -0.97412         6.65235         1.98375
H         -0.97016         8.54810         1.56992
H         -0.92540        10.94082         1.11671
H         -0.80937        12.88874         1.22353
H         -0.77451        15.26545         0.67713
H         -0.72390        17.14223         0.17053
H         -0.72916        19.40910        -0.75158
H         -1.03238        20.85264        -2.14947
H         -1.00879        23.25390        -1.90662
H         -1.06058        25.15670        -2.02779
H         -1.06015        27.48194        -1.41337
H         -0.92589        29.43774        -1.23346
H         -0.99808        31.65478        -0.25293
H         -1.08549        33.23534         0.97157
H         -1.08447        35.68475         1.30662
H          0.13472        37.81702         1.59614
H          3.63627         2.98123         2.58299
H          2.26808        39.04750         1.84805
H          6.08843         2.94163         2.57456
H          4.70815        39.07922         1.81945
H          8.59092         2.95588         2.51658
H          7.18039        39.11088         1.85730
H         11.02483         2.93271         2.47173
H          9.63087        39.06427         2.22234
H         13.45829         2.85662         2.34916
H         12.11235        39.07484         2.34034
H         15.73898         2.66524         1.24578
H         14.58790        39.17169         2.17488
H         18.03854         2.44894         0.34395
H         17.05963        39.25335         2.03437
H         20.14316         3.50555        -0.39352
H         21.43425         5.51021        -1.00840
H         21.63246         7.95008        -1.23753
H         21.86540         9.88757        -0.99282
H         21.90259        12.22445        -1.63346
H         21.94139        14.19983        -1.05540
H         21.98510        16.64664        -0.95497
H         22.00289        18.58598        -1.07595
H         21.98373        20.97117        -0.62439
H         21.94980        22.84485        -0.27345
H         21.95080        25.16490         0.41841
H         21.80810        27.06512         1.23091
H         21.80059        29.50984         1.26973
H         21.88949        31.44240         0.62223
H         21.83337        33.85794         0.92340
H         21.78039        35.74857         1.22306
H         21.68707        38.17186         1.64904
H         19.50373        39.33744         1.92292
