         268
 CSIRO Nanostructure Databank - Neutral Graphene Oxide Data Set
C        -11.15585         0.76752         0.90691
C        -10.06511         1.55331         0.26112
C         -8.86711         0.76702        -0.27833
C         -7.57351         1.46243        -0.65577
C         -6.27718         0.71414        -0.49633
C         -4.94918         1.44368        -0.48711
C         -3.81071         0.83203         0.32013
C         -2.51477         1.66660         0.43034
C         -1.24812         0.79715         0.59096
C          0.05248         1.42922         0.14817
C          1.33434         0.67588         0.30888
C          2.58544         1.45335         0.64947
C          3.86536         0.72831         0.93585
C          5.20359         1.47976         1.07367
C          6.42365         0.69062         0.62934
C          7.66867         1.42079         0.24698
C          9.03174         0.80564         0.52889
C          9.99849         1.47205        -0.53160
C         11.29709         0.70284        -0.65701
C         -9.75569         2.94046         0.52276
C         -8.90468         3.70103        -0.45940
C         -7.56824         2.97385        -0.82415
C         -6.23907         3.69785        -1.01813
C         -4.93209         2.91055        -0.86849
C         -3.64974         3.69426        -0.67448
C         -2.39139         2.86359        -0.51403
C         -1.10639         3.60925        -0.43102
C          0.08320         2.96122         0.28951
C          1.38736         3.58132        -0.20966
C          2.64745         2.86340         0.14102
C          3.95334         3.61030         0.18838
C          5.21405         2.87093         0.44351
C          6.48792         3.63149         0.69234
C          7.65671         2.94971        -0.02246
C          8.98714         3.66821         0.15054
C         10.10903         2.94448        -0.13581
C         -8.69840         5.16437        -0.11832
C         -7.51279         5.79103        -0.22850
C         -6.22263         5.19946        -0.73318
C         -4.98696         5.79667        -0.04555
C         -3.66119         5.14002        -0.27331
C         -2.39767         5.82110         0.22124
C         -1.12738         5.09648        -0.14164
C          0.13977         5.86616        -0.37803
C          1.47310         5.08725        -0.53153
C          2.60479         5.79041         0.23829
C          3.88715         5.07564         0.50806
C          5.17918         5.85836         0.68450
C          6.48740         5.11438         0.76650
C          7.76108         5.83204         0.47594
C          8.91712         5.12671         0.29081
C         -7.20697         7.04334        -1.01466
C         -6.25150         8.04443        -0.35341
C         -4.98645         7.28723         0.08947
C         -3.70259         8.07921         0.19332
C         -2.40718         7.35406         0.61200
C         -1.15545         8.04832         0.11290
C          0.10565         7.32835        -0.08111
C          1.42302         8.06628         0.34588
C          2.64630         7.25588        -0.09010
C          3.94650         7.95191        -0.25289
C          5.20407         7.29123         0.25578
C          6.51002         8.05222         0.00044
C          7.73526         7.34834         0.65276
C         -5.93733         9.18133        -1.30626
C         -4.76635         9.83354        -1.32516
C         -3.62642         9.42698        -0.47036
C         -2.31759        10.06342        -0.66393
C         -1.12109         9.40852        -0.32418
C          0.14868        10.08763        -0.45264
C          1.40765         9.47727        -0.24904
C          2.62115        10.12183        -0.44885
C          3.99445         9.47320        -0.44086
C          5.08000        10.07300         0.43077
C          6.25699         9.44216         0.58304
C        -11.18332        -0.58305         0.94573
C         -9.96732        -1.40506         0.68734
C         -8.78516        -0.66587         0.16073
C         -7.60395        -1.43264        -0.34429
C         -6.35247        -0.68908         0.03305
C         -5.16104        -1.41290         0.55166
C         -3.85924        -0.62791         0.73988
C         -2.60191        -1.45435         1.12778
C         -1.27504        -0.67373         0.92991
C          0.03535        -1.47699         0.87730
C          1.34551        -0.77032         0.71693
C          2.63325        -1.51522         0.43469
C          3.92606        -0.73547         0.60299
C          5.20929        -1.50156         0.70006
C          6.48362        -0.75640         1.03094
C          7.75613        -1.48189         0.78184
C          9.04626        -0.73694         0.52246
C         10.20570        -1.46672        -0.09411
C         11.34196        -0.63942        -0.59394
C         -9.98133        -2.89001         0.50224
C         -8.91119        -3.60146         0.06286
C         -7.64397        -2.91194        -0.31530
C         -6.31623        -3.65654        -0.25695
C         -5.18378        -2.91804         0.50125
C         -3.88185        -3.64525         0.53120
C         -2.60135        -2.84770         0.48727
C         -1.32454        -3.61818         0.38406
C          0.00485        -2.93543         0.51241
C          1.28512        -3.72230         0.48706
C          2.63397        -3.00978         0.54474
C          3.86142        -3.74465         1.02296
C          5.17930        -2.99201         0.97674
C          6.49298        -3.70853         0.87697
C          7.58128        -2.86564         0.09607
C          8.86601        -3.59604        -0.25068
C         10.02838        -2.87327        -0.50224
C         -8.98802        -5.09610        -0.24138
C         -7.66648        -5.85709        -0.13241
C         -6.41635        -5.10811         0.34225
C         -5.13641        -5.80310        -0.15047
C         -3.83187        -5.05653        -0.00619
C         -2.56381        -5.83076         0.21215
C         -1.31838        -5.10789         0.64260
C         -0.04344        -5.89719         0.85937
C          1.28338        -5.23249         0.55403
C          2.57995        -5.98124         0.67261
C          3.87177        -5.24875         1.00744
C          5.17715        -6.00105         0.77804
C          6.62284        -5.29478         0.77257
C          7.47160        -5.66474        -0.47747
C          8.67487        -4.92286        -0.70638
C         -7.61387        -7.19845        -0.28672
C         -6.38825        -8.02083         0.09956
C         -5.11289        -7.27586        -0.30416
C         -3.78142        -8.03128        -0.37289
C         -2.63708        -7.31831         0.36346
C         -1.38834        -8.10984         0.63951
C         -0.06154        -7.45102         1.09681
C          1.22167        -8.18169         0.62999
C          2.55839        -7.49265         0.73168
C          3.75178        -8.10176         0.04359
C          5.06943        -7.35499         0.12941
C          6.24274        -7.91228        -0.69196
C          7.21917        -6.83923        -1.14024
C         -6.31353        -9.40538        -0.51684
C         -5.15216       -10.07827        -0.58456
C         -3.92209        -9.51149         0.09980
C         -2.58329       -10.15136        -0.20417
C         -1.38682        -9.49057         0.05615
C         -0.15939        -9.98437        -0.46005
C          1.09409        -9.32653        -0.32461
C          2.15365        -9.68592        -1.15474
C          3.52423        -9.18333        -0.97912
C          4.57820        -9.31862        -2.01178
C          5.78217        -8.73681        -1.88189
O          5.33235        -7.21572         1.56061
O         -2.94216        -5.34482        -1.11377
O          0.65479        -3.26814        -0.75043
O         -3.96919         9.27766         0.98798
O         -0.78119        -5.29293         1.97916
O          2.09565         2.84092        -1.22467
O          6.99301        -2.65574        -1.12437
O         -1.17235         0.33969         1.97543
O         10.08055        -1.27305         1.39270
O         -6.40323         6.15075        -1.90576
O         -6.94547         0.78532        -1.78364
O         -1.64564         5.13779         1.24650
O          7.28191        -1.24458         2.13432
O          3.24839         7.39960        -1.42035
O          3.98216        -9.48234         0.40149
O          6.84488         0.77650        -0.75922
O         -5.29792        -6.41919        -1.46927
O         -5.19134         6.40417         1.25576
O          4.78396         3.12242        -0.91778
O          2.09887        -8.32053         1.80385
O         -8.90001        -0.89702         1.59659
O          0.08564         6.84857        -1.47429
O          6.05152        -3.27129         2.12643
O          7.46519         3.15040        -1.39851
O          3.71369        -4.50148         2.25328
O          1.46789         8.18562         1.70308
O          0.85537        -1.14223         2.03936
O         -4.15393         0.44568         1.68138
O         -2.38936        -7.83145         1.69454
O          4.74748        -1.00398        -0.57674
O          6.63385         4.24008         1.97774
O         -4.69518        -3.52660         1.72567
O         -7.08016         3.35175        -2.14068
O         -7.74887        -2.13627        -1.59527
O         -6.16935        -0.86404         1.46446
O         -3.52429         4.74304        -1.67539
O          2.97127         1.13884         2.02028
O         -1.97160        -3.02868        -0.79967
O          0.70795         0.84967        -0.99957
O          2.89580         5.32798         1.56842
O          5.06223         6.92744         1.67210
O          7.31248        -5.70358         1.84325
O         -4.62730         1.86184        -1.83777
O          2.78418        -2.33905        -0.74179
O         -6.49493        -5.13531         1.72497
O         -1.49479         2.92768        -1.65081
O         -9.93092         1.11791        -1.16661
O          1.99045        -5.69723        -0.64926
O         -2.69831        -1.73355         2.52719
H         -2.66793        -0.88042         3.01272
O          1.80924         5.20472        -1.91886
H          2.23071         4.36127        -2.21046
O         -2.36389         7.39855         2.04609
H         -3.24291         7.13087         2.39000
O         -5.83171        -3.79114        -1.60148
H         -6.33818        -3.17372        -2.18118
O          5.42536         1.68116         2.48201
H          4.56179         1.87396         2.91361
O         -2.64151         2.39517         1.68576
H         -2.80694         1.72627         2.39316
O         -6.90529         8.59631         0.80047
H         -6.23120         9.10976         1.29900
O          9.40402         1.36150        -1.83128
H          8.63743         2.00536        -1.90852
O          7.03374        -8.76325         0.16736
H          6.95576        -8.39324         1.07918
O         -6.41157        -8.10370         1.54111
H         -6.49849        -7.17917         1.88781
O          0.03700         3.25622         1.68924
H         -0.88317         3.11468         2.02198
O          4.44489         9.66812        -1.82283
H          3.90100         9.05558        -2.37352
O         -9.50832        -5.24106        -1.57274
H         -8.86387        -4.85730        -2.20302
O         -4.17875        -9.67328         1.50297
H         -3.51764        -9.15474         2.01920
O         -0.03177        -7.61174         2.51822
H         -0.83153        -7.17572         2.88821
O          9.41568         1.22767         1.84077
H          9.97081         0.51831         2.23765
O          6.75504         8.14058        -1.40915
H          6.07381         8.74423        -1.79940
O          7.72934         7.62081         2.05808
H          6.88393         7.27045         2.42637
O         -9.65909         3.76095        -1.69767
H         -9.01019         3.80534        -2.43702
O         -3.38958        -8.11270        -1.75551
H         -3.74750        -7.30112        -2.19460
H         12.28338        -1.16974        -0.80830
H         12.19413         1.25624        -0.97656
H         11.10554         3.41198        -0.08295
H          9.86098         5.68234         0.16667
H          8.66857         7.79174         0.22764
H          7.05319         9.90654         1.18487
H          4.91597        11.06739         0.87187
H          2.59428        11.10138        -0.95929
H          0.11237        11.17718        -0.61493
H         -2.28355        11.07298        -1.09770
H         -4.61244        10.68111        -2.00968
H         -6.75887         9.52283        -1.95445
H         -8.05618         7.52805        -1.54796
H         -9.61762         5.77039        -0.09057
H        -10.18523         3.44613         1.39861
H        -12.04143         1.33401         1.23194
H        -12.07871        -1.09592         1.32819
H        -10.92141        -3.41604         0.73175
H         -9.73781        -5.56637         0.44489
H         -8.52944        -7.74349        -0.57085
H         -7.22581        -9.83026        -0.96432
H         -5.10211       -11.07062        -1.05864
H         -2.53943       -11.15795        -0.65184
H         -0.19301       -10.89957        -1.07173
H          1.97953       -10.45113        -1.92772
H          4.34776        -9.91148        -2.90991
H          6.53133        -8.89202        -2.67380
H          7.85415        -7.09445        -2.00643
H          9.53197        -5.45788        -1.15092
H         10.84803        -3.35280        -1.06262
