         344
 CSIRO Nanostructure Databank - Neutral Graphene Oxide Data Set
C          1.94002         3.59385         2.12485
C          0.90747         4.31484         2.71195
C          1.78003         6.39533         1.76027
C          0.82443         5.69688         2.52921
C          1.69007         7.82468         1.53632
C          0.60740         8.56050         2.06580
C          1.50703        10.62052         1.15976
C          0.52618         9.92991         1.89932
C          1.46208        12.13004         1.22704
C          0.16206        12.76830         0.80059
C          1.31824        14.92147         0.55851
C          0.11468        14.10272         0.58148
C          1.28889        16.33223         0.46906
C          0.06060        17.06775         0.52593
C          1.26011        19.20115         0.47517
C          0.04862        18.43556         0.51632
C          1.25000        20.61138         0.57394
C          0.05738        21.36477         0.69902
C          1.29151        23.48483         0.70473
C          0.08008        22.74092         0.84141
C          1.31247        24.99659         0.90031
C          0.00802        25.74285         0.72439
C          1.27401        27.81663         0.38041
C          0.02295        27.07911         0.54119
C          1.28665        29.25588         0.38527
C          3.96768         3.52985         0.72974
C          2.92019         4.26135         1.35611
C          3.86333         6.35465         0.40248
C          2.85896         5.67582         1.17818
C          3.78933         7.75751         0.20284
C          2.68601         8.49625         0.75744
C          3.60195        10.66389        -0.17201
C          2.55143         9.91035         0.55715
C          3.74114        12.10778         0.11709
C          2.62369        12.81934         0.56877
C          3.76854        14.95486         0.19347
C          2.57605        14.23704         0.47340
C          3.75860        16.37619         0.18992
C          2.51517        17.07904         0.33686
C          3.74091        19.23074         0.17502
C          2.50695        18.49338         0.34796
C          3.76351        20.62938         0.25489
C          2.55362        21.33429         0.80900
C          3.75292        23.52662         0.34676
C          2.49310        22.81261         0.52147
C          3.71695        24.91556         0.23030
C          2.39302        25.61495         0.01717
C          3.67897        27.81903        -0.10314
C          2.45303        27.11802         0.17989
C          3.69087        29.27862        -0.06346
C          2.44650        29.95429         0.18472
C          6.00164         3.35457        -0.69083
C          4.94767         4.17474         0.00273
C          6.07210         6.23649        -0.78738
C          4.94378         5.59310        -0.15750
C          5.99412         7.67104        -1.29523
C          4.62654         8.36973        -0.90579
C          6.06524        10.60582        -0.78682
C          4.75922         9.90540        -0.79521
C          6.06209        12.01023        -0.67773
C          4.91040        12.78052        -0.31880
C          6.14903        14.93019        -0.33275
C          4.96862        14.22522        -0.15650
C          6.27445        16.36021         0.12526
C          4.97182        17.10884         0.03264
C          6.20066        19.23982        -0.26808
C          4.97166        18.50734        -0.02890
C          6.20616        20.65461        -0.21625
C          4.98351        21.36805         0.09000
C          6.31118        23.48130         0.40455
C          4.98374        22.77666         0.22010
C          6.24550        24.99042         0.11451
C          4.93987        25.70767         0.07867
C          6.02461        27.88054        -0.92667
C          4.84999        27.12001        -0.34986
C          6.13132        29.29377        -0.39381
C          4.90104        29.96488        -0.11605
C          8.47271         3.40077        -0.76416
C          7.30776         4.09928        -0.78575
C          8.45722         6.26371        -1.56397
C          7.25241         5.53689        -0.98656
C          8.50223         7.73009        -1.13867
C          7.28647         8.43625        -1.02724
C          8.56137        10.52961        -1.00570
C          7.30354         9.85762        -0.92355
C          8.61388        12.00793        -0.70751
C          7.31113        12.74142        -0.97206
C          8.66486        14.90567        -0.49539
C          7.34152        14.24131        -0.81815
C          8.65253        16.39564        -0.72225
C          7.44864        17.11314        -0.46669
C          8.61826        19.23109        -1.10393
C          7.39691        18.50719        -0.56756
C          8.64906        20.69312        -0.71995
C          7.45494        21.37864        -0.41240
C          8.67690        23.50330        -0.48291
C          7.48942        22.79794        -0.25335
C          8.70742        24.95763        -0.50320
C          7.39985        25.63862        -0.57220
C          8.61366        27.83783        -0.80221
C          7.33874        27.09978        -0.92150
C          8.60331        29.24220        -0.57817
C          7.35207        29.93555        -0.38397
C         10.93387         3.51459        -0.22952
C          9.77584         4.06485        -0.92814
C         11.00351         6.30141        -1.01957
C          9.77860         5.52837        -1.31473
C         11.00729         7.66809        -1.10151
C          9.74970         8.41138        -1.14917
C         11.06062        10.55357        -1.53874
C          9.77169         9.83249        -1.13142
C         11.10143        12.02415        -1.23975
C          9.82034        12.73118        -1.27832
C         11.12654        14.92882        -1.13401
C          9.83538        14.22365        -1.16544
C         11.09408        16.34063        -1.11512
C          9.88089        17.04721        -0.93520
C         11.17214        19.23765        -1.05110
C          9.90045        18.52933        -0.65166
C         11.14924        20.68434        -0.90748
C          9.89444        21.37570        -0.75654
C         11.12634        23.51766        -0.83104
C          9.90727        22.80192        -0.70879
C         11.11783        24.98290        -1.18070
C          9.84659        25.67417        -0.77717
C         11.06330        27.81522        -0.62094
C          9.83029        27.12476        -0.77623
C         11.05729        29.22966        -0.50623
C          9.83674        29.92163        -0.47405
C         13.27229         3.56632         0.39217
C         12.15424         4.16532        -0.23037
C         13.34407         6.34335        -0.15599
C         12.30690         5.51847        -0.92562
C         13.53338         7.72161        -0.72901
C         12.33286         8.37152        -1.35898
C         13.52098        10.54953        -0.98521
C         12.33565         9.86001        -1.15637
C         13.54611        12.00593        -0.98102
C         12.30015        12.72495        -1.13863
C         13.58312        14.85044        -1.10193
C         12.32433        14.17598        -1.15019
C         13.62286        16.31720        -1.36094
C         12.31357        17.07362        -1.62166
C         13.61810        19.22343        -1.06376
C         12.34655        18.54178        -1.23912
C         13.64551        20.72087        -1.21812
C         12.34433        21.40640        -0.90354
C         13.60689        23.55553        -0.74481
C         12.35061        22.82874        -0.84435
C         13.61394        24.97565        -0.67037
C         12.36446        25.72211        -0.76405
C         13.54610        27.80220        -0.04781
C         12.30945        27.07708        -0.53889
C         13.50912        29.29236        -0.30524
C         12.33023        29.93843        -0.45611
C         15.70036         3.53396         0.88746
C         14.53354         4.21707         0.48767
C         15.84408         6.25018         0.13542
C         14.62475         5.59658         0.11201
C         16.00964         7.57981        -0.56259
C         14.72706         8.37942        -0.69470
C         15.98927        10.52906        -0.71157
C         14.79439         9.83502        -0.84856
C         15.99948        11.98021        -0.58439
C         14.74215        12.70889        -0.78219
C         16.09303        14.87066        -0.76292
C         14.75794        14.14620        -0.85632
C         15.99542        16.33995        -0.39903
C         14.85177        17.08049        -0.94175
C         15.84961        19.21747         0.04789
C         14.76009        18.53936        -0.74879
C         15.97810        20.69390        -0.24157
C         14.83979        21.40668        -0.60209
C         16.03365        23.52997        -0.25533
C         14.82571        22.83512        -0.56275
C         16.03649        24.97258        -0.22931
C         14.83062        25.66975        -0.47523
C         16.03957        27.85374        -0.04826
C         14.82626        27.17529        -0.63346
C         16.01154        29.26170         0.07982
C         14.82003        30.03385        -0.44164
C         18.15445         3.49183         1.25992
C         16.94783         4.18892         0.90781
C         18.29195         6.24883         0.56581
C         17.02706         5.56107         0.52825
C         18.37463         7.64853         0.32886
C         17.10717         8.43773         0.08930
C         18.52158        10.51582        -0.20651
C         17.30325         9.74263        -0.70783
C         18.43864        12.01455        -0.02611
C         17.13217        12.67777        -0.19917
C         18.30315        14.85768         0.46054
C         16.99616        14.12881         0.22138
C         18.31616        16.27511         0.44738
C         17.12284        17.02733         0.06812
C         18.32962        19.16614         0.45299
C         17.14841        18.46017         0.12249
C         18.37404        20.61255         0.42399
C         17.19927        21.37554         0.05050
C         18.47824        23.53628         0.16457
C         17.22133        22.79218        -0.02581
C         18.42025        24.98447         0.44557
C         17.22171        25.68549         0.15541
C         18.34464        27.80642         0.79080
C         17.18917        27.11939         0.30638
C         18.30324        29.22687         0.93593
C         17.12437        29.93308         0.57609
C         19.36460         4.13058         1.24881
C         20.69959         6.21323         1.01457
C         19.46341         5.52553         0.93048
C         20.75736         7.58162         0.83653
C         19.58517         8.32761         0.53327
C         20.58576        10.51412         1.13123
C         19.60747         9.78946         0.48908
C         20.53995        11.93427         1.24703
C         19.49271        12.68560         0.76158
C         20.61031        14.86053         1.23760
C         19.45204        14.14142         0.85443
C         20.62573        16.23968         1.22791
C         19.48900        16.98146         0.82630
C         20.67110        19.13952         1.17307
C         19.51216        18.43227         0.81108
C         20.70165        20.52897         1.15829
C         19.57674        21.27499         0.77072
C         20.69025        23.50302         1.40687
C         19.70345        22.74863         0.62994
C         20.64913        24.86373         1.47709
C         19.55349        25.64552         0.96730
C         20.64877        27.81132         1.59095
C         19.53269        27.08757         1.12936
C         20.59998        29.20502         1.73582
C         19.44947        29.91144         1.42008
O         10.07274         4.50085        -2.32338
O          5.85094        25.70756         1.33010
O          7.22060        26.06737        -1.98039
O          3.72375        10.51193        -1.62728
O          6.00941         7.61235        -2.72188
O         19.55626        23.17833        -0.76610
O         19.00177        11.41304        -1.26636
O          7.20554        13.61105        -2.13272
O         14.61891        16.67111        -2.38512
O          9.60725        13.57282        -2.44942
O         16.38378         7.17104        -1.89826
H         16.68728         7.96730        -2.39662
O         11.03606        10.50168        -3.01288
H         11.45147         9.64602        -3.28572
O         13.82467        20.90482        -2.67228
H         13.72319        21.86201        -2.86373
O          8.81859        12.05989         0.74394
H          8.07527        11.58817         1.17492
O          5.68750        28.08680        -2.34118
H          6.00549        27.28745        -2.82157
O          2.74924        21.26365         2.28952
H          2.01613        21.77488         2.69507
O         16.71463        14.81798        -2.07147
H         16.15278        15.36667        -2.66862
O         14.80440        27.45864        -2.07117
H         15.52607        26.94293        -2.48915
O          1.72672        25.20440         2.28153
H          0.98433        24.94375         2.86472
O         16.62656         8.86149         1.39814
H         16.62636         8.07711         1.98629
O         15.32524        19.16296         1.44126
H         16.03262        19.50230         2.03087
O          9.87818        18.63177         0.81106
H         10.67253        18.17781         1.16316
O          1.59082        12.42280         2.66861
H          1.56400        13.39872         2.76838
O         12.76539         5.31634        -2.28346
H         12.02980         4.84734        -2.74867
O          6.59558        16.26944         1.58234
H          6.67136        17.19000         1.91722
O          2.00382        25.35844        -1.36705
H          2.58371        25.89291        -1.94917
O          8.88058        14.76019         0.94011
H          8.14553        15.24147         1.40082
O         16.28333        14.14230         1.49739
H         16.84824        13.70329         2.16705
O         12.13668        17.07625        -3.06876
H         13.02510        17.24474        -3.45894
O         17.60571         9.43215        -2.09094
H         18.07175        10.22370        -2.45338
O         12.72281         6.56634         1.15714
H         13.34470         7.09801         1.69716
O         11.11668        25.01544        -2.65876
H         10.23123        24.71817        -2.95917
O          6.59717        23.34425         1.83289
H          6.13575        24.09587         2.27746
O         13.58711        27.63389         1.39761
H         13.52403        26.67441         1.58964
O          8.26643         6.28632        -2.99524
H          7.40601         6.78779        -3.15160
O         15.03454        30.27564        -1.84989
H         14.98182        29.39406        -2.29264
O          8.57505        19.16764        -2.55297
H          7.72605        19.55120        -2.85523
O          6.16440         2.07884        -0.06931
H          6.46507         2.21995         0.85146
O         12.53152         8.16318        -2.81518
H         12.68686         7.19044        -2.93641
O          3.74650         8.07611        -2.00798
H          4.37180         7.86599        -2.77054
H          2.00375         2.50376         2.25056
H          0.14694         3.79941         3.31445
H         -0.00939         6.23210         3.00119
H         -0.17331         8.05578         2.64860
H         -0.29052        10.49395         2.37004
H         -0.75914        12.16744         0.78876
H         -0.85269        14.57648         0.36080
H         -0.89327        16.52768         0.59489
H         -0.91823        18.95286         0.57476
H         -0.91844        20.86028         0.68016
H         -0.87263        23.27174         0.97204
H         -0.95176        25.22490         0.86842
H         -0.91902        27.64764         0.50511
H          0.34074        29.79051         0.55589
H          3.99946         2.43449         0.82622
H          2.43968        31.05405         0.19916
H          5.64751         3.15506        -1.74059
H          4.92281        31.04245         0.10854
H          8.44750         2.31175        -0.60381
H          7.39210        31.01225        -0.15638
H         10.81689         2.56937         0.32268
H          9.83796        31.01360        -0.34090
H         13.17526         2.53623         0.76893
H         12.31590        31.03064        -0.59563
H         15.64235         2.46743         1.15099
H         14.76061        31.03457         0.05653
H         18.08961         2.42747         1.52892
H         17.10459        31.02877         0.67440
H         20.28254         3.58564         1.51359
H         21.61154         5.65065         1.26146
H         21.72199         8.09865         0.93182
H         21.40860         9.99118         1.63830
H         21.35279        12.41646         1.80690
H         21.52170        14.32274         1.52921
H         21.54850        16.75090         1.52949
H         21.58783        18.60648         1.45400
H         21.63934        21.04143         1.41100
H         21.46288        22.95991         1.96937
H         21.43899        25.37529         2.04420
H         21.58467        27.29243         1.83725
H         21.48884        29.73912         2.09994
H         19.41708        31.00444         1.53246
