         278
 CSIRO Nanostructure Databank - Neutral Graphene Oxide Data Set
C        -10.79225         0.65510        -1.34374
C         -9.82647         1.45668        -0.58525
C         -8.65856         0.71656         0.06635
C         -7.35713         1.43451         0.48412
C         -6.12742         0.63026         0.00557
C         -4.86173         1.32945        -0.35525
C         -3.55387         0.62741        -0.18469
C         -2.32898         1.42006         0.22741
C         -1.03617         0.68172        -0.11570
C          0.22939         1.47036         0.08326
C          1.40720         0.71578         0.63829
C          2.56493         1.49949         1.19169
C          3.86321         0.80344         1.63410
C          5.10503         1.42351         1.00704
C          6.29390         0.75050         0.95562
C          7.50016         1.43300         0.30435
C          8.85575         0.74629         0.45104
C          9.99907         1.49583        -0.20373
C         11.00560         0.72787        -0.96965
C         -9.68967         2.90148        -0.86625
C         -8.60049         3.61850        -0.50646
C         -7.36010         3.03674         0.18291
C         -6.16567         3.54606        -0.64675
C         -4.87803         2.80374        -0.64248
C         -3.56539         3.55569        -0.63395
C         -2.29671         2.85662        -0.26106
C         -1.16204         3.67163         0.36164
C          0.16753         2.92840         0.40870
C          1.29021         3.64120         0.74407
C          2.57419         2.97749         0.96340
C          3.77049         3.66648         0.95104
C          5.03469         2.89690         0.73869
C          6.31670         3.65287         0.61099
C          7.63775         2.91543         0.73802
C          8.68207         3.61052        -0.13082
C          9.76746         2.88691        -0.60328
C         -8.56217         5.07404        -0.66635
C         -7.40674         5.78504        -0.74615
C         -6.12673         5.04566        -0.86832
C         -4.82060         5.76543        -0.82284
C         -3.59075         5.05177        -0.28799
C         -2.30385         5.75787        -0.80897
C         -0.95850         5.03912        -0.35141
C         -0.06071         5.91686         0.57874
C          1.23071         5.13096         0.93271
C          2.53842         5.88042         1.03993
C          3.82489         5.12557         0.85541
C          5.01165         5.80132         0.68141
C          6.35880         5.14974         0.86116
C          7.46034         5.78891         0.03454
C          8.52390         4.97510        -0.44825
C         -7.44673         7.30531        -0.74552
C         -6.09064         8.01595        -0.63434
C         -4.80411         7.26079        -0.65395
C         -3.52460         7.87102        -0.19252
C         -2.34356         7.23338        -0.38751
C         -1.04418         7.99621        -0.59053
C          0.19743         7.22808        -0.15571
C          1.43257         8.00981         0.08593
C          2.52420         7.42790         0.98457
C          3.80681         8.05046         0.47141
C          5.04752         7.24755         0.36813
C          6.37459         8.00771         0.39359
C          7.44203         7.14164        -0.21121
C         -6.05830         9.38967        -0.06430
C         -4.91953         9.97140         0.33665
C         -3.59263         9.26265         0.49900
C         -2.41072         9.99272        -0.06403
C         -1.07915         9.39804         0.18247
C          0.12743        10.26078        -0.26621
C          1.44042         9.50335        -0.03832
C          2.58247        10.19615         0.15087
C          3.89757         9.57209         0.58143
C          5.09022        10.06415        -0.20927
C          6.21716         9.34674        -0.29316
C        -10.78719        -0.70284        -1.26473
C         -9.70172        -1.42459        -0.64052
C         -8.61791        -0.74646        -0.12955
C         -7.40400        -1.46871         0.34321
C         -6.11823        -0.72270         0.21311
C         -4.86288        -1.53762        -0.08322
C         -3.58770        -0.79495         0.29725
C         -2.28891        -1.51508         0.51254
C         -1.09608        -0.86307        -0.20079
C          0.26081        -1.53521         0.04755
C          1.50779        -0.76024         0.34343
C          2.65655        -1.53219         0.93997
C          3.80805        -0.73921         1.50141
C          5.12683        -1.44654         1.80619
C          6.40208        -0.69817         1.32009
C          7.65425        -1.46811         0.89311
C          8.87881        -0.73839         0.41050
C          9.89493        -1.42713        -0.48170
C         10.89898        -0.59720        -1.18259
C         -9.69269        -2.91338        -0.78830
C         -8.53921        -3.71731        -0.29813
C         -7.38536        -2.97008         0.31378
C         -6.08725        -3.73960         0.39352
C         -4.80364        -2.98811         0.37443
C         -3.49132        -3.71710         0.04795
C         -2.30951        -3.04365         0.78804
C         -0.98022        -3.77410         0.53453
C          0.29612        -3.01801         0.32795
C          1.59899        -3.74460        -0.02929
C          2.77365        -3.01516         0.66152
C          3.86266        -3.69310         1.12498
C          5.12673        -2.97375         1.48385
C          6.42329        -3.69377         1.02780
C          7.55031        -2.89240         0.52349
C          8.36497        -3.38393        -0.53208
C          9.46943        -2.70856        -1.03381
C         -8.57719        -5.17377        -0.03710
C         -7.37643        -5.89813         0.04395
C         -6.11041        -5.11087        -0.27773
C         -4.79216        -5.88574        -0.16343
C         -3.56086        -5.20505         0.44901
C         -2.24326        -5.87793         0.10488
C         -1.03338        -5.22906         0.18442
C          0.23359        -5.95313         0.06083
C          1.50538        -5.22924         0.31465
C          2.60663        -5.90233         0.75167
C          3.88562        -5.22126         1.24784
C          5.07003        -5.82752         0.46416
C          6.46191        -5.21816         0.77002
C          7.33764        -5.68253        -0.38024
C          7.97939        -4.64803        -1.25336
C         -7.33780        -7.28138         0.25493
C         -6.07113        -7.96165         0.68846
C         -4.82200        -7.35976         0.07997
C         -3.54596        -8.04419         0.28318
C         -2.32040        -7.32896        -0.14213
C         -1.02755        -8.10052        -0.28882
C          0.22864        -7.32647        -0.11868
C          1.48652        -8.10600         0.00790
C          2.60752        -7.39383         0.74835
C          3.91107        -8.14618         0.70083
C          5.17949        -7.35774         0.59630
C          6.35240        -7.95089        -0.14020
C          7.30033        -6.98019        -0.75086
C         -6.01620        -9.46903         0.65435
C         -4.83068       -10.10761         0.75040
C         -3.53863        -9.42165         0.59969
C         -2.33371       -10.12186         0.63656
C         -1.10821        -9.62936        -0.09612
C          0.20295       -10.27725         0.26536
C          1.35000        -9.57505         0.28802
C          2.57882        -9.83477        -0.54384
C          3.90177        -9.60689         0.20504
C          5.07311        -9.99374        -0.66452
C          6.18697        -9.26471        -0.80323
O          6.03598        -3.55991         2.44273
O          2.21410        -8.58371        -1.27319
O          1.24605         7.23493        -1.15783
O         -9.80891         1.14051         0.85049
O         -5.34456         5.35277        -2.09901
O         10.05677        -1.35655         0.98472
O         -4.70916        -6.78538        -1.28465
O         -7.67523        -2.26410         1.55352
O         -6.17736        -4.78703        -1.69421
O         -2.38659         1.56473         1.67300
H         -2.56915         0.68016         2.08731
O          7.45722        -1.03096         2.28515
O          1.46612         1.04897         2.05625
O          1.20372        -1.14028        -1.02473
O         -1.38374       -10.21774        -1.41194
H         -1.81414        -9.50317        -1.94606
O         -5.37209        -3.43707         1.62619
O          6.62517         5.40505         2.32381
H          8.86218         2.41859         2.20507
O          5.18043        -1.35894         3.25071
H          6.03525        -1.76941         3.52418
O         -2.58730         3.14240        -1.64179
O         -0.86656         9.06385         1.57053
H         -0.76101         9.89487         2.07915
O          6.27848        -7.95231         1.32296
O          4.21622         7.54449        -0.82372
O         -5.93032        -7.60985         2.11562
H         -6.73042        -7.92490         2.58636
O          4.08435        -5.53139         2.63465
H          3.33998        -5.16442         3.15457
O          4.09762         9.95336         1.95975
H          3.46441         9.43071         2.50461
O         -7.27060         1.31092         1.90748
H         -7.32183         2.25154         2.25147
O          3.91414       -10.48291         1.35033
H          3.60491        -9.95501         2.12136
O          6.96033        -4.27192        -2.22916
H          6.95441        -4.94701        -2.93952
O          2.76442        -1.27569         2.37295
O         -1.41261        -1.15600        -1.58222
H         -0.77567        -0.64861        -2.13655
O          7.26694         1.35434        -1.12566
H          6.54230         1.99913        -1.33952
O         -5.74138         2.88866        -1.85747
O         -5.28956         7.94459        -1.86480
O         -1.79691        -7.71369        -1.47514
O         -0.27882         1.18778        -1.25737
O          9.89490         1.31661         1.28694
O         -0.72824         6.33223         1.77273
H         -0.76882         5.56976         2.39288
O          1.79907         5.45852         2.24106
O         -2.98747        -0.88650         1.62708
O          8.02536         2.94896         2.12583
O         -2.55917        -3.17654         2.19857
H         -1.70543        -3.03295         2.66762
O         -3.72918         5.21566         1.13122
H         -2.93180         4.85383         1.59772
O         -8.70941        -3.38970        -1.76180
H         -7.07968        -4.47658        -1.93019
O         -0.09074        -3.42597         1.67562
O          3.15760        -8.02265         1.95268
O          8.04879         5.58886         2.51534
H          8.36254         4.63886         2.57512
O         -0.15915         4.79462        -1.50616
H         -0.77266         4.65058        -2.26557
O          2.29896         7.92583         2.31909
H          1.81789         7.21443         2.81087
O         -4.85601        -1.69561        -1.53695
H         -4.67418        -0.80472        -1.94213
O          3.98077         1.09240         3.04387
H          4.38230         0.30152         3.48319
O          4.74424        -5.57098        -0.92628
H          5.42335        -4.98897        -1.34918
O          5.58912         3.29602        -0.60144
O          7.02982        -5.76322         1.96152
H          6.43878        -5.52765         2.71082
O         -7.21857         3.70916         1.40099
O          6.73238         8.26596         1.77426
H          6.97902         7.41325         2.20029
O         -0.94710         8.25594        -1.99130
H         -0.14890         7.77302        -2.32034
O         -3.48203         8.99222         1.90326
H         -2.57338         8.64161         2.07470
O         -8.29336         7.74693         0.32406
H         -8.15495         7.16355         1.09906
O         -2.32906         5.71543        -2.24136
H         -3.25596         5.79260        -2.55993
O         -3.75400        -5.44262         1.85933
H         -3.49554        -4.63028         2.36373
O         -1.49031         3.93368         1.75646
H         -1.69033         3.05896         2.18105
O         -4.07848         0.75884        -1.52001
O         -3.18592        -3.70817        -1.34840
H         -3.78200        -3.06703        -1.81229
O         -0.02308        10.70935        -1.60416
H         -0.28235         9.93200        -2.15698
O          1.82376        -3.70867        -1.44931
H          1.75357        -2.77200        -1.74851
H         11.60475        -1.10762        -1.85508
H         11.77584         1.30675        -1.50197
H         10.48732         3.36673        -1.28331
H          9.29980         5.45806        -1.06193
H          8.26525         7.60114        -0.78017
H          7.08256         9.73847        -0.85036
H          5.01980        11.04853        -0.69680
H          2.55227        11.29698         0.10327
H          0.15021        11.17738         0.38339
H         -2.53977        10.48499        -1.04322
H         -4.94975        11.00224         0.72152
H         -7.00335         9.95267        -0.04758
H         -7.92381         7.65963        -1.69913
H         -9.52289         5.61334        -0.65729
H        -10.53705         3.40675        -1.35756
H        -11.53189         1.17445        -1.97069
H        -11.55501        -1.28787        -1.79219
H        -10.68516        -3.40326        -0.89370
H         -9.54429        -5.68918         0.06381
H         -8.28946        -7.82084         0.39127
H         -6.95671       -10.03963         0.69722
H         -4.80175       -11.20461         0.83370
H         -2.36000       -11.20176         0.85196
H          0.24395       -11.36925         0.12523
H          2.57029       -10.73444        -1.20007
H          4.99281       -10.96935        -1.16849
H          7.00469        -9.61984        -1.44940
H          7.89951        -7.32437        -1.61004
H          8.85741        -5.07024        -1.80607
H          9.99635        -3.10879        -1.91175
