         261
 CSIRO Nanostructure Databank - Neutral Graphene Oxide Data Set
C        -11.34703         0.52756         0.16392
C        -10.12263         1.37267         0.18141
C         -8.80195         0.63637         0.02831
C         -7.56602         1.36641        -0.47674
C         -6.38219         0.67156         0.23379
C         -5.13839         1.41737         0.58279
C         -3.81327         0.70615         0.64103
C         -2.58331         1.37416         0.08007
C         -1.24205         0.60682         0.08554
C         -0.00339         1.48425         0.41002
C          1.27618         0.73771         0.54477
C          2.52527         1.39563         1.06940
C          3.78821         0.63413         0.72425
C          5.10090         1.38171         0.61099
C          6.28603         0.73775        -0.07366
C          7.60199         1.46346         0.00462
C          8.87553         0.67533         0.06531
C         10.18041         1.40724         0.12720
C         11.42252         0.60959        -0.07931
C        -10.15419         2.79891        -0.03432
C         -8.96170         3.63212        -0.47421
C         -7.60325         2.90504        -0.30446
C         -6.37747         3.62893         0.16035
C         -5.10713         2.90258         0.49815
C         -3.83403         3.62890         0.24668
C         -2.58346         2.85007        -0.04143
C         -1.35529         3.60728         0.37000
C         -0.12178         2.91203         0.86220
C          1.14789         3.70435         1.28938
C          2.52904         2.92492         1.20658
C          3.84260         3.66478         0.98754
C          5.14169         2.88189         0.79330
C          6.43687         3.65718         0.53066
C          7.72390         2.90440         0.43667
C          8.99867         3.60421         0.08160
C         10.14676         2.88874        -0.02073
C         -8.92932         5.05777         0.10211
C         -8.16689         6.08656        -0.27582
C         -6.20748         5.04853         0.70702
C         -5.16792         5.79361        -0.12109
C         -3.88589         5.02517        -0.31492
C         -2.56673         5.73767        -0.48181
C         -1.28747         5.00941        -0.12484
C         -0.00722         5.75224        -0.01242
C          1.20400         5.13179         0.66235
C          2.49056         5.78758         0.26416
C          3.83406         5.11612         0.53441
C          5.08298         5.74350        -0.02615
C          6.40739         5.03209        -0.05755
C          7.70430         5.81797        -0.13782
C          9.01142         5.12020         0.27010
C         -7.74704         7.32421        -0.55121
C         -6.45504         8.03769        -0.23574
C         -5.15410         7.29169        -0.10927
C         -3.89606         7.95883        -0.61178
C         -2.57848         7.22892        -0.52555
C         -1.34035         8.00643        -0.19118
C         -0.04316         7.27151        -0.03363
C          1.19521         7.88365        -0.64477
C          2.41386         6.99184        -0.66711
C          3.71109         7.49216        -1.15017
C          4.88518         6.86675        -0.97508
C          6.69583         8.08547        -0.52635
C          7.62739         7.30053         0.08589
C         -6.33356         9.49724        -0.55524
C         -5.15541        10.15260        -0.65622
C         -3.85637         9.43580        -0.82788
C         -2.51604        10.10732        -0.77273
C         -1.34533         9.45588        -0.54402
C         -0.01050        10.17433        -0.35452
C          1.24063         9.42581        -0.92859
C          2.52966        10.03744        -0.35057
C          3.75645         9.67018        -0.80966
C          5.04776        10.05668        -0.22100
C          6.25700         9.42069        -0.10856
C        -11.34463        -0.80556        -0.05380
C        -10.12028        -1.57766        -0.40205
C         -8.83554        -0.83027        -0.35586
C         -7.55385        -1.60876        -0.13777
C         -6.31427        -0.83715         0.15167
C         -5.12385        -1.53426         0.76120
C         -3.81760        -0.77635         0.73980
C         -2.50378        -1.46118         0.52459
C         -1.29441        -0.66984         0.93682
C         -0.02441        -1.41706         1.17563
C          1.19649        -0.77852         0.57478
C          2.45266        -1.55968         0.45879
C          3.71872        -0.77833         0.17789
C          4.98480        -1.52214        -0.10937
C          6.28281        -0.76629        -0.28174
C          7.57344        -1.49994        -0.41243
C          8.87337        -0.73776        -0.43224
C         10.15783        -1.49319        -0.46469
C         11.41127        -0.73541        -0.19227
C        -10.05423        -3.07249        -0.38748
C         -8.91441        -3.76185        -0.14304
C         -7.72089        -3.03937         0.49853
C         -6.37089        -3.82501         0.37964
C         -5.10200        -3.02346         0.64165
C         -3.85884        -3.52867        -0.09230
C         -2.48754        -2.92782         0.34119
C         -1.34335        -3.67468         0.98058
C         -0.06204        -2.94053         1.34870
C          1.28949        -3.72137         1.55764
C          2.57871        -2.93418         1.05466
C          3.87635        -3.65293         0.78569
C          5.02571        -3.06265        -0.05873
C          6.37788        -3.62683         0.44667
C          7.64377        -2.91387         0.08368
C          8.90720        -3.65191        -0.22819
C         10.06778        -2.98130        -0.43551
C         -8.91247        -5.28722        -0.13623
C         -7.58145        -5.96381        -0.47693
C         -6.31700        -5.18861        -0.26511
C         -5.00645        -5.79719        -0.72736
C         -3.77445        -5.03858        -0.33852
C         -2.61466        -5.80667         0.20325
C         -1.33971        -5.15072         0.70998
C         -0.02196        -5.82886         0.50996
C          1.28245        -5.17045         0.94743
C          2.58024        -5.87829         0.65599
C          3.89117        -5.16329         0.94327
C          5.20385        -5.90231         0.94880
C          6.46581        -5.13140         0.64337
C          7.64395        -5.87491         0.07034
C          8.81071        -5.13018        -0.57923
C         -7.50983        -7.31583        -0.57176
C         -6.23840        -8.06633        -0.81793
C         -4.96674        -7.29375        -0.95186
C         -3.60100        -7.97374        -0.92763
C         -2.55180        -7.24976        -0.12780
C         -1.26269        -7.83620        -0.65321
C          0.00104        -7.01164        -0.42433
C          1.29730        -7.64433        -0.77694
C          2.58871        -6.99321        -0.35534
C          3.89663        -7.51690        -0.87322
C          5.30652        -7.43910         0.88307
C          6.35024        -8.01813        -0.03082
C          7.44300        -7.28396        -0.36505
C         -6.08667        -9.49649        -0.44851
C         -4.87627       -10.09291        -0.28425
C         -3.59775        -9.41868        -0.45136
C         -2.38421       -10.02673        -0.22818
C         -1.11548        -9.32068        -0.42372
C          0.10824        -9.89664        -0.59446
C          1.31372        -9.13863        -1.17325
C          2.66299        -9.68837        -0.74761
C          3.82551        -9.56292        -1.50783
C          5.15821       -10.06010        -1.03316
C          6.20909        -9.42222        -0.47968
O          3.74457         8.70979        -1.86634
O         -2.72073         2.03773        -1.23384
O          1.83394         6.09110         1.54679
O         -4.12716        -5.23974        -1.75175
O          4.65265         6.02134         1.35243
O          4.66434        -8.13049         1.65944
O         -6.58264        -1.41820        -1.17822
O         -9.17694         0.97298         1.35156
O          0.93393         1.39107        -0.71700
O         -9.46699        -1.05418        -1.64052
O          0.62510        -6.73964        -1.71893
O         -6.28332        -5.00429         1.21699
O          4.12052        -1.00932        -1.19527
O         -0.70565         7.81013         1.14312
O          7.28415         3.45002         1.72231
O          7.55619        -5.58811         1.49738
O          6.82419         1.42793        -1.23848
O         -1.56497        -7.70226        -2.11248
O         -3.61393         0.07707         1.92719
O         -2.96303        -6.87868         1.18668
O         -2.10704        -2.04959        -0.76092
O         -4.35076         3.50919         1.59854
O         -5.15159        -2.40418         1.93969
O          7.11417        -2.91815         1.46939
O         -4.82706         5.19515        -1.40191
O          3.65367        -2.95682         2.03685
O          5.41049         1.96830         1.89315
O         -0.33420         5.07957        -1.25024
O         -0.69013        -0.66182         2.23789
O          9.54541        -0.93875        -1.71083
O         -5.69876        -7.69685        -2.14770
O          3.32467        -6.61760        -1.61167
O         -6.66476         3.50207        -1.26163
O          1.87276        -6.15028         1.88363
O         -5.80168         7.81713         1.07387
O         -6.12576         1.05620         1.60562
O          3.33095         3.41205         2.31658
O          6.79630        -1.20397        -1.59685
O         -1.05409        -3.30390         2.34536
O          1.46822         7.00527        -1.79033
O         -3.02321        -7.95331        -2.28375
O          4.53561        -5.51716         2.18977
O          1.53785        -1.46044        -0.67334
O         -1.18583         3.27410         1.78137
O          5.99052         7.47817        -1.58528
O         -4.01792         8.50217        -1.96547
O         -2.41311         6.42568        -1.74272
O         -8.01494        -2.83371         1.82282
O          3.23041         0.65952         2.08061
O          9.50255         0.89803         1.35945
O         -0.78366        -6.00687         1.73682
O          7.11718         5.20688        -1.32014
O         -6.55820         5.39438         1.81342
O         -9.19454         3.73173        -1.89977
H         -8.88599         2.90144        -2.32611
O          9.27773         5.38761         1.65131
H          8.67794         4.81422         2.18429
O          8.71341        -5.24281        -2.00824
H          8.07077        -4.58497        -2.34539
O          0.93298         3.91152         2.68358
H          1.73522         4.34593         3.05292
O          4.88657        -3.56652        -1.39947
H          4.50696        -2.84556        -1.95524
O          0.16453        10.40532         1.04712
H         -0.06141         9.57236         1.52551
O          1.16528        -9.20951        -2.61052
H          0.48577        -8.53987        -2.86221
O         -7.48795         1.12620        -1.88680
H         -6.80698         1.73003        -2.26180
O         -4.17571        -2.91805        -1.36449
H         -3.55910        -3.24629        -2.05412
O         -1.06001         0.11495        -1.24211
H         -1.18302         0.85879        -1.87172
O          1.41865        -3.84076         2.95954
H          1.93127        -4.65695         3.16071
O          1.19344         9.61189        -2.34085
H          1.93316         9.09329        -2.73349
O          3.78663        -9.39109        -2.84619
H          2.84429        -9.22212        -3.11146
O         -9.94963        -5.80097        -0.96800
H         -9.72478        -5.61434        -1.90239
H         12.36062        -1.29055        -0.22917
H         12.38213         1.14192         0.00510
H         11.10441         3.41009        -0.17435
H          9.84992         5.56583        -0.32305
H          8.23209         7.68754         0.91883
H          6.99985         9.95052         0.51169
H          4.98614        11.01302         0.32641
H          2.43212        10.75501         0.47816
H         -0.05326        11.17285        -0.85459
H         -2.49465        11.19438        -0.95182
H         -5.15468        11.24712        -0.77312
H         -7.26784        10.08038        -0.55880
H         -8.40813         7.91240        -1.21859
H         -9.52298         5.20198         1.02569
H        -11.13298         3.23161        -0.29989
H        -12.30124         1.03829         0.36449
H        -12.29735        -1.35470        -0.00841
H        -10.95517        -3.62057        -0.70987
H         -9.16525        -5.59090         0.91687
H         -8.44390        -7.89980        -0.56095
H         -7.00216       -10.08058        -0.27069
H         -4.84367       -11.15210         0.01470
H         -2.34959       -11.09099         0.05139
H          0.20212       -10.99129        -0.52270
H          2.78707        -9.85553         0.33240
H          5.32331       -11.12136        -1.29216
H          7.12263       -10.02727        -0.34379
H          8.20508        -7.70494        -1.03924
H          9.75872        -5.64666        -0.28230
H         10.97129        -3.54889        -0.71093
