         204
 CSIRO Nanostructure Databank - Neutral Graphene Oxide Data Set
C        -10.99596         0.74421         0.82066
C         -9.81748         1.50469         0.43163
C         -8.60239         0.76789         0.13621
C         -7.40817         1.48527        -0.21636
C         -6.34148         0.68210        -0.91616
C         -5.05880         1.46160        -1.21839
C         -3.76929         0.68807        -1.35551
C         -2.49267         1.47324        -1.48295
C         -1.19491         0.69605        -1.40826
C          0.07359         1.42199        -1.18614
C          1.25937         0.71754        -1.03858
C          2.48016         1.56243        -1.28686
C          3.77818         0.49229         0.43528
C          4.94973         1.29443         0.24183
C          6.17244         0.64009        -0.10561
C          7.36332         1.43062        -0.15990
C          8.68020         0.75388        -0.28952
C          9.83258         1.43569         0.36767
C         10.98423         0.62408         0.70886
C         -9.78918         2.88056         0.43242
C         -8.58946         3.60502         0.11851
C         -7.39063         2.87137        -0.23619
C         -6.17477         3.59684        -0.56432
C         -4.99234         2.91477        -0.92661
C         -3.72026         3.60445        -0.97624
C         -2.51460         2.92233        -1.21753
C         -1.24447         3.67428        -1.27171
C          0.08554         2.90915        -1.27269
C          1.26756         3.59757        -0.67975
C          2.44137         2.87915        -0.57162
C          3.57697         3.40621         0.21212
C          4.89764         2.71838         0.26331
C          6.08277         3.47389         0.27270
C          7.32814         2.79968         0.07424
C          8.62563         3.56373        -0.07207
C          9.77762         2.78530         0.53577
C         -8.57200         4.99510         0.12661
C         -7.38539         5.72202        -0.17467
C         -6.20544         5.02097        -0.51739
C         -4.98394         5.75439        -0.86257
C         -3.69892         5.04440        -0.84696
C         -2.49384         5.77063        -0.73699
C         -1.24044         5.08091        -0.80208
C         -0.03669         5.73430        -0.47681
C          1.20348         5.00342        -0.33047
C          2.36275         5.66472         0.10368
C          3.55145         4.88842         0.49351
C          4.84902         5.57507         0.67025
C          6.05087         4.91254         0.52697
C          7.32388         5.64553         0.59455
C          8.53268         4.98206         0.39004
C         -7.37833         7.14797        -0.00532
C         -6.22400         7.89636        -0.10157
C         -4.98748         7.27832        -0.61290
C         -3.70446         7.91760        -0.32073
C         -2.49972         7.19611        -0.44524
C         -1.26562         7.86642        -0.18303
C         -0.04121         7.14526        -0.18061
C          1.17171         7.82202         0.13085
C          2.38750         7.09119         0.27942
C          3.56600         7.76012         0.69594
C          4.78004         7.00389         1.01644
C          6.12434         7.78660         1.11666
C          7.32214         7.04968         0.77756
C         -6.16331         9.28033         0.29380
C         -4.97525         9.94783         0.35160
C         -3.71245         9.28226         0.10845
C         -2.50350         9.95198         0.28577
C         -1.26793         9.26900         0.13875
C         -0.04966         9.93937         0.36648
C          1.16987         9.23769         0.37581
C          2.39972         9.90068         0.63956
C          3.58707         9.18564         0.79261
C          4.85609         9.88898         0.91098
C          6.04836         9.24941         0.95848
C        -11.02054        -0.60183         0.75242
C         -9.86659        -1.39008         0.18690
C         -8.57701        -0.61606         0.19972
C         -7.25088        -1.29664         0.43593
C         -6.09889        -0.67467        -0.30644
C         -4.91300        -1.39101        -0.50657
C         -3.71240        -0.73740        -0.95939
C         -2.45572        -1.42393        -0.91090
C         -1.23564        -0.74568        -1.10791
C          0.06302        -1.48765        -1.30508
C          1.29979        -0.71664        -0.86013
C          2.45989        -1.43591        -0.51098
C          3.71267        -0.79842        -0.12718
C          4.95580        -1.45890        -0.39426
C          6.17694        -0.75655        -0.34084
C          7.42110        -1.47224        -0.84201
C          8.71935        -0.72561        -0.52042
C          9.88000        -1.47912         0.02153
C         11.01382        -0.72476         0.51328
C         -9.72459        -2.76262         0.77218
C         -8.51921        -3.47032         0.64938
C         -7.29261        -2.79100         0.32652
C         -6.09159        -3.49700         0.15458
C         -4.87205        -2.80828        -0.19119
C         -3.65937        -3.52988        -0.31387
C         -2.44392        -2.85181        -0.62880
C         -1.20817        -3.57385        -0.62838
C          0.02257        -2.90425        -0.80927
C          1.24843        -3.59670        -0.68264
C          2.47975        -2.87491        -0.62072
C          3.71227        -3.58971        -0.55369
C          4.95117        -2.89381        -0.54817
C          6.18359        -3.61273        -0.45826
C          7.41947        -2.91905        -0.41384
C          8.61493        -3.59968        -0.11108
C          9.83033        -2.84556         0.12804
C         -8.48600        -4.88163         0.83593
C         -7.29553        -5.60676         0.67867
C         -6.08185        -4.92050         0.33226
C         -4.86686        -5.64363         0.22361
C         -3.64681        -4.95585        -0.07907
C         -2.43622        -5.68245        -0.13874
C         -1.19868        -4.99869        -0.39579
C          0.00841        -5.72243        -0.44239
C          1.25750        -5.02745        -0.58058
C          2.48098        -5.72616        -0.57559
C          3.70899        -5.02835        -0.54215
C          4.94346        -5.74243        -0.38570
C          6.16465        -5.03681        -0.30392
C          7.39640        -5.73218        -0.04180
C          8.58963        -5.00191         0.07945
C         -7.27242        -7.02075         0.86667
C         -6.08840        -7.74037         0.75468
C         -4.86213        -7.05478         0.44477
C         -3.64691        -7.78018         0.37563
C         -2.43060        -7.09712         0.09378
C         -1.20915        -7.82680         0.05631
C          0.01597        -7.15357        -0.22816
C          1.21919        -7.87912        -0.25740
C          2.48154        -7.22107        -0.74462
C          3.73565        -7.88793        -0.24489
C          4.93215        -7.17415        -0.19631
C          6.17494        -7.86027         0.08486
C          7.36590        -7.14898         0.14486
C         -6.05466        -9.16894         0.96097
C         -4.88627        -9.86561         0.89015
C         -3.63655        -9.20157         0.60717
C         -2.43597        -9.90321         0.56518
C         -1.20445        -9.23925         0.29849
C          0.02041        -9.94043         0.28629
C          1.23250        -9.27720         0.02084
C          2.48855        -9.97663         0.08541
C          3.70633        -9.29874         0.01939
C          4.95875        -9.97452         0.26300
C          6.13638        -9.28733         0.28963
O          3.19269         3.89565         1.55595
O         -0.43979         3.48492        -2.50186
O         -6.97691        -1.01999         1.88121
H         -7.60238        -1.57094         2.39987
O         -1.78955         1.07740        -2.71661
O          2.48986        -7.43871        -2.21336
H          2.49232        -8.40917        -2.35823
O          5.39295         7.31185         2.30412
O          8.91633         3.63271        -1.51522
H          9.01834         2.71079        -1.83917
O        -10.19404        -1.59976        -1.24837
H         -9.36586        -1.86768        -1.70147
O         -6.97360         0.34841        -2.20197
H         -6.23908         0.34549        -2.86650
O          2.74405         0.93702         1.19701
H          2.95540         1.80007         1.61480
O          0.19934        -1.61040        -2.77505
H          0.10044        -0.71021        -3.15624
O         -5.11583         6.72121        -1.95818
O          7.29768        -1.52511        -2.29362
H          7.73119        -0.70974        -2.63931
O          3.33417         1.27514        -2.11100
O          9.05424         0.21780        -1.61219
O         -4.58650         1.04385        -2.54876
H         11.91082        -1.29273         0.80340
H         11.86232         1.13311         1.13319
H         10.62888         3.32954         0.97298
H          9.46583         5.56500         0.42195
H          8.24269         7.61200         0.56043
H          6.98893         9.81802         0.90742
H          4.82815        10.98719         0.84709
H          2.40680        10.99659         0.73515
H         -0.05872        11.01545         0.59356
H         -2.50078        11.01238         0.57779
H         -4.95073        11.00616         0.64940
H         -7.10164         9.79066         0.55648
H         -8.30637         7.63130         0.33612
H         -9.48610         5.55023         0.38377
H        -10.69500         3.45074         0.68817
H        -11.87083         1.30130         1.18963
H        -11.92451        -1.15790         1.04350
H        -10.64059        -3.31661         1.02801
H         -9.41746        -5.41179         1.08338
H         -8.20892        -7.54080         1.11734
H         -6.99914        -9.68637         1.18471
H         -4.87526       -10.95300         1.05553
H         -2.43050       -10.98820         0.74801
H          0.02771       -11.01997         0.49777
H          2.47982       -11.05538         0.30106
H          4.94302       -11.06011         0.43948
H          7.08265        -9.81421         0.48227
H          8.30773        -7.67863         0.35382
H          9.52464        -5.52876         0.32184
H         10.70593        -3.38886         0.51588
