         410
 CSIRO Nanostructure Databank - Neutral Graphene Oxide Data Set
C         27.82119        27.21595         0.34476
C         27.48827        28.52565        -0.11443
C         26.31156        29.27369         0.06333
C         27.45513        31.41635         0.61412
C         26.34394        30.68011         0.14080
C         27.37983        32.85182         0.88045
C         26.59525        33.77295         0.22161
C         27.91152        35.91490         0.59770
C         26.75037        35.19142         0.32232
C         27.90400        37.37010         0.45895
C         26.69844        38.08958         0.57710
C         27.83195        40.19002         0.09399
C         26.66801        39.46704         0.42235
C         27.74112        41.66907        -0.08655
C         26.67476        42.42727         0.59571
C         27.89393        44.54181         0.30968
C         26.72062        43.77898         0.68160
C         27.92498        45.94169         0.49791
C         30.36237        27.47119         0.54273
C         29.10951        26.74714         0.51805
C         30.39821        28.88940         0.64853
C         29.19661        29.63256         0.32187
C         30.60147        31.83510         1.38677
C         28.68304        30.75191         0.95384
C         30.53454        33.23043         1.12774
C         29.32510        33.97105         1.24563
C         30.40841        35.98745         0.39454
C         29.20689        35.28051         0.77046
C         30.37530        37.39419         0.13262
C         29.10595        38.09073         0.19644
C         30.29407        40.19057        -0.45871
C         29.05117        39.49315        -0.04094
C         30.28233        41.69510        -0.65034
C         28.99857        42.44506        -0.44977
C         30.29066        44.58532        -0.24048
C         29.07193        43.87833        -0.10389
C         30.29409        46.00032        -0.08539
C         29.08914        46.65371         0.27211
C         32.83671        24.62710         0.53655
C         31.65062        25.32413         0.51981
C         32.84829        27.43926         0.78922
C         31.60814        26.74261         0.64644
C         32.83213        28.85996         0.89801
C         31.62571        29.57986         0.91080
C         32.87394        31.72492         0.55986
C         31.68322        31.04256         0.99403
C         32.85006        33.12053         0.35757
C         31.67852        33.87837         0.58248
C         32.85259        35.96774        -0.03063
C         31.63311        35.28004         0.29692
C         32.83668        37.39430        -0.10692
C         31.59669        38.09787        -0.06488
C         32.78561        40.25442        -0.34606
C         31.59949        39.52906        -0.24673
C         32.77900        41.71598        -0.45468
C         31.55316        42.43093        -0.49258
C         32.76077        44.55219        -0.50786
C         31.54015        43.84780        -0.43266
C         32.73037        46.01561        -0.67742
C         31.51203        46.75810        -0.32584
C         32.80695        48.85300        -0.29637
C         31.58136        48.14024        -0.24728
C         35.36851        23.13703         0.58619
C         35.33579        24.55883         0.60446
C         34.09077        25.28926         0.64682
C         35.35851        27.38097         0.79325
C         34.09988        26.70684         0.76867
C         35.39719        28.84326         0.95736
C         34.10037        29.61894         0.98794
C         35.31379        31.62152         0.08801
C         34.11701        31.01063         0.49170
C         35.25862        32.98220        -0.52180
C         33.99404        33.77621        -0.28968
C         35.30107        35.93612        -0.32214
C         34.04985        35.25189        -0.25143
C         35.28236        37.36676        -0.20507
C         34.07720        38.09542        -0.21551
C         35.24641        40.25755        -0.41257
C         34.06278        39.55166        -0.29915
C         35.28001        41.73503        -0.14750
C         33.98983        42.44976        -0.42683
C         35.26165        44.60019        -0.45390
C         33.99996        43.86244        -0.49924
C         35.30290        46.01041        -0.43483
C         34.06451        46.77825        -0.66749
C         35.30731        48.91868        -0.28878
C         34.03717        48.22151        -0.38699
C         35.37116        50.33085        -0.27749
C         37.80984        23.11966         0.45238
C         36.55740        22.44694         0.51629
C         37.81232        24.54094         0.49178
C         36.57349        25.25735         0.57005
C         37.83213        27.41020         0.57558
C         36.57491        26.68906         0.62512
C         37.83681        28.81234         0.55043
C         36.61752        29.56161         0.55841
C         37.80745        31.60621        -0.17220
C         36.55460        30.91094         0.19334
C         37.79533        33.02773        -0.62377
C         36.51457        33.79273        -0.92857
C         37.79134        35.93868        -0.49572
C         36.53408        35.23384        -0.44120
C         37.82142        37.35813        -0.41571
C         36.56801        38.06739        -0.13380
C         37.76967        40.21510        -0.81399
C         36.54224        39.56801        -0.27454
C         37.71667        41.74192        -0.99243
C         36.50377        42.46731        -0.63320
C         37.72415        44.60690        -0.43866
C         36.50392        43.87567        -0.48949
C         37.74676        45.99530        -0.22614
C         36.52200        46.72695        -0.25793
C         37.75430        48.89067        -0.14257
C         36.52614        48.18264        -0.23611
C         37.81031        50.30426        -0.21116
C         36.58182        51.00378        -0.27287
C         40.20592        20.21421         0.14600
C         39.06669        20.94601         0.24306
C         40.26725        23.09728         0.35249
C         39.05748        22.38932         0.39163
C         40.27391        24.53066         0.30520
C         39.05620        25.26033         0.43918
C         40.33266        27.37647         0.45251
C         39.08084        26.68605         0.49635
C         40.37906        28.81997         0.46127
C         39.11284        29.54046         0.61671
C         40.34501        31.64139        -0.16105
C         39.10178        31.04022         0.33757
C         40.26501        33.01308        -0.67906
C         39.04548        33.79253        -0.22595
C         40.27204        35.94338        -0.66333
C         39.02945        35.24487        -0.59680
C         40.27198        37.37318        -0.63380
C         39.05053        38.08372        -0.51892
C         40.27581        40.26446        -0.67270
C         39.05127        39.52146        -0.64428
C         40.26758        41.67916        -0.66362
C         39.03302        42.44848        -0.93862
C         40.21367        44.50501         0.07053
C         39.01200        43.91081        -0.62353
C         40.23672        46.00795        -0.07523
C         39.02546        46.67935        -0.08120
C         40.30801        48.87764         0.15378
C         38.98928        48.13452         0.12654
C         40.31309        50.31192        -0.17805
C         39.09712        51.01107        -0.29450
C         40.36353        53.05399        -0.75275
C         39.15802        52.40477        -0.58628
C         42.74373        20.17067        -0.11194
C         41.52296        20.82135         0.36105
C         42.80388        23.03221         0.04325
C         41.55315        22.37383         0.44560
C         42.72978        24.49050        -0.20171
C         41.50183        25.23622         0.15166
C         42.83490        27.33429         0.37719
C         41.53736        26.63208         0.28632
C         42.85106        28.87690         0.37905
C         41.55557        29.55161         0.25332
C         42.80380        31.62813        -0.42793
C         41.54983        30.94787        -0.11096
C         42.82608        33.02698        -0.67585
C         41.57294        33.77503        -0.88987
C         42.77184        35.92830        -0.48287
C         41.50769        35.22889        -0.73452
C         42.79899        37.42029        -0.45267
C         41.54959        38.11400        -0.95100
C         42.74242        40.27978        -0.54914
C         41.54042        39.58189        -0.61346
C         42.73818        41.70222        -0.57290
C         41.48693        42.40134        -0.56305
C         42.65069        44.54141        -0.56801
C         41.47455        43.82070        -0.37779
C         42.74089        45.97837        -0.28020
C         41.51183        46.69853        -0.08971
C         42.77841        48.80572        -0.04494
C         41.54703        48.10621        -0.03164
C         42.80550        50.24225        -0.20664
C         41.56935        50.96077        -0.35471
C         42.85221        53.00779        -0.79913
C         41.59545        52.35472        -0.64108
C         43.90694        20.86733        -0.24386
C         45.26521        23.00880        -0.56925
C         43.96648        22.30626        -0.14889
C         45.25975        24.44844        -0.07361
C         44.02933        25.24525        -0.32408
C         45.30133        27.37747         0.01131
C         44.07600        26.67030         0.01442
C         45.29783        28.81578        -0.08924
C         44.08544        29.54829        -0.05742
C         45.27697        31.58981        -0.93361
C         44.03439        30.91454        -0.40560
C         45.29681        33.08176        -0.67740
C         44.07191        33.73625        -0.66331
C         45.31811        35.99079        -0.83024
C         44.03895        35.21131        -0.80165
C         45.28466        37.46873        -0.63257
C         44.09512        38.14207        -0.58476
C         45.31107        40.37084        -0.75239
C         44.07439        39.61771        -0.26846
C         45.25846        41.74909        -0.93270
C         43.95047        42.42095        -0.83280
C         45.53610        44.81960        -0.88245
C         43.74283        43.78630        -1.09726
C         45.24975        45.91162        -0.04257
C         43.97212        46.64856        -0.04527
C         45.17428        48.85662         0.39302
C         43.97765        48.07327         0.15045
C         45.26938        50.21947        -0.00022
C         44.04029        50.92792        -0.31641
C         44.03200        52.31797        -0.63562
C         47.71038        23.01862         0.02441
C         46.54315        22.33219        -0.13953
C         47.80898        24.45139        -0.04729
C         46.55851        25.20633         0.09012
C         47.77675        27.35599        -0.19673
C         46.54044        26.66672        -0.05869
C         47.77523        28.77682        -0.24267
C         46.55119        29.51614        -0.29060
C         47.81530        31.62951        -0.91023
C         46.55032        30.89179        -0.55492
C         47.75204        33.09330        -0.51390
C         46.55439        33.80219        -0.57047
C         47.73785        35.99710        -0.39563
C         46.57348        35.26120        -0.54878
C         47.75814        37.45205        -0.49131
C         46.55097        38.18640        -0.59295
C         47.80953        40.28097        -0.68515
C         46.56115        39.61697        -0.69718
C         47.85606        41.73291        -0.95921
C         46.55138        42.51544        -1.11609
C         47.75539        44.54551        -0.07143
C         46.63706        43.96070        -0.70076
C         47.63377        45.78750         0.60128
C         46.31677        46.25604         0.80766
C         47.60489        48.80263         0.93902
C         46.29878        48.30745         1.04551
C         47.70068        50.11182         0.40044
C         46.55851        50.81745         0.02819
C         50.29400        24.49932        -0.27841
C         49.02183        25.17650        -0.19097
C         50.25574        27.29672        -0.59573
C         49.00013        26.59489        -0.27515
C         50.26828        28.80783        -0.58712
C         49.06147        29.51656        -0.01676
C         50.28599        31.65071        -0.37512
C         49.06658        30.96399        -0.40979
C         50.29459        33.08735        -0.34191
C         48.99916        33.76992        -0.16404
C         50.28376        35.99757        -0.24775
C         48.99670        35.29652        -0.08851
C         50.25505        37.41771        -0.28466
C         49.00571        38.14342        -0.39109
C         50.26840        40.27292        -0.22779
C         49.02078        39.56569        -0.45691
C         50.28754        41.69222        -0.12031
C         49.12479        42.46002        -0.58797
C         50.16767        44.50030         0.64121
C         49.07285        43.91619        -0.14674
C         50.05087        45.84446         1.12697
C         48.79624        46.54400         1.05377
C         49.94942        48.58537         1.72256
C         48.76200        47.95094         1.27953
C         51.48606        25.17064        -0.38657
C         52.75155        27.32644        -0.48728
C         51.54433        26.59216        -0.50395
C         52.73623        28.76087        -0.37346
C         51.55371        29.50781        -0.40887
C         52.76392        31.67241        -0.32289
C         51.54263        30.93446        -0.30105
C         52.73214        33.08802        -0.38833
C         51.49838        33.81017        -0.31128
C         52.73549        35.99909        -0.26770
C         51.49853        35.27473        -0.27097
C         52.71027        37.40946        -0.19105
C         51.48484        38.12347        -0.18774
C         52.67902        40.26152         0.27466
C         51.47669        39.55900        -0.06068
C         52.63472        41.64880         0.57674
C         51.42222        42.37776         0.37188
C         52.52085        44.41606         1.31605
C         51.36544        43.77824         0.74894
C         52.45942        45.77619         1.72377
C         51.21533        46.50388         1.61901
C         51.11871        47.88245         1.93935
C         55.22237        27.29367        -0.57159
C         54.02948        26.65304        -0.63753
C         55.31273        28.70202        -0.15879
C         53.98120        29.48509        -0.07302
C         55.25408        31.58878        -0.23471
C         54.02077        30.94804        -0.23528
C         55.31148        33.06142        -0.39764
C         53.99010        33.83881        -0.52461
C         55.22024        35.93058        -0.05615
C         54.00278        35.29079        -0.27080
C         55.28657        37.41090        -0.03348
C         53.97007        38.17772        -0.15113
C         55.09812        40.21805         0.75222
C         53.92749        39.57264         0.32556
C         55.04568        41.60693         1.13922
C         53.81628        42.31357         1.03864
C         54.91173        44.34441         1.91063
C         53.74966        43.69263         1.41867
C         54.82971        45.70693         2.31254
C         53.64241        46.39522         2.22550
C         56.51501        29.48704        -0.42265
C         56.48390        30.84727        -0.34196
C         56.45712        33.81326         0.11257
C         56.41675        35.16969         0.19638
C         56.39212        38.12352         0.62131
C         56.31050        39.44449         0.91805
C         56.19954        42.30216         1.60910
C         56.13528        43.62215         1.98864
O         43.27864        24.88763        -1.54032
O         46.08853        47.16532         1.84309
O         40.74113        33.24998        -2.01130
O         50.10460        28.12703        -1.84558
O         54.85303        37.99492        -1.30880
O         41.66501        21.53021         1.62900
O         45.75019        24.68335         1.25768
O         42.72241        36.68690         0.81061
O         54.67013        28.99265         1.12234
O         34.84186        29.35685         2.22808
O         29.47792        31.25303         2.00529
O         44.63872        35.61184        -2.08827
O         30.23616        40.80451        -1.80302
O         37.98678        31.96164        -1.60129
O         47.33188        42.10980        -2.27499
O         49.47615        43.52852        -1.50941
O         54.79916        33.48302        -1.70136
O         39.23565        43.46547        -1.99534
O         48.93048        34.48628         1.13315
O         39.61275        48.54240         1.40742
O         33.38155        46.43706        -1.92206
O         44.64712        44.48291        -1.90117
O         27.98721        42.13679        -1.45618
O         28.23140        33.35910         1.88985
O         37.56126        40.81678        -2.13266
O         36.71878        38.97875         1.05829
O         42.97747        28.12036         1.61823
O         28.51479        29.18674        -0.82928
O         34.26495        33.10576        -1.58445
O         39.11421        30.55708         1.69652
O         40.02614        44.21911         1.49247
H         40.67693        44.74955         1.99861
O         45.19064        31.47215        -2.43258
H         44.46566        32.06782        -2.72535
O         39.04119        33.75264         1.23801
H         39.68318        34.41381         1.57389
O         36.48837        33.94293        -2.36903
H         36.74025        33.07362        -2.75437
O         45.26527        23.03971        -2.02299
H         44.47622        23.56837        -2.29625
O         49.29111        29.48658         1.44349
H         48.55019        29.96213         1.87599
O         41.68679        38.06046        -2.41357
H         40.91241        38.51466        -2.80911
O         44.17463        39.68776         1.20594
H         44.87734        39.06490         1.48953
O         47.92413        31.60501        -2.37933
H         46.99796        31.59341        -2.73422
O         35.42626        41.80163         1.34122
H         35.94855        41.01847         1.62899
H         26.99177        26.53982         0.60355
H         25.35260        28.75794         0.22228
H         25.38225        31.21486         0.08571
H         25.79862        33.40663        -0.44357
H         25.88382        35.76964        -0.03465
H         25.76463        37.56379         0.81708
H         25.70768        39.98913         0.52505
H         25.81688        41.88894         1.02234
H         25.88511        44.32574         1.14369
H         27.01149        46.46370         0.81637
H         29.17012        25.68824         0.81002
H         29.07582        47.74404         0.40018
H         32.80099        23.53552         0.42505
H         30.72207        24.75490         0.38464
H         32.75877        49.94156        -0.15527
H         30.67095        48.72647        -0.06237
H         34.43378        22.56394         0.64142
H         34.44436        50.91887        -0.31247
H         36.52178        21.35003         0.52072
H         36.56948        52.10129        -0.29866
H         40.15683        19.14592        -0.11238
H         38.10856        20.42788         0.10332
H         40.37981        54.13062        -0.97580
H         38.23116        52.98397        -0.69229
H         42.70175        19.10546        -0.38327
H         42.86907        54.08131        -1.03653
H         44.81081        20.33466        -0.57073
H         44.98556        52.85282        -0.74394
H         48.62738        22.44045         0.21299
H         46.56251        21.23517        -0.07186
H         48.68448        50.59217         0.30126
H         46.67607        51.85802        -0.30437
H         50.31240        23.40349        -0.20892
H         49.92845        49.66533         1.92611
H         52.41825        24.58921        -0.37364
H         51.99353        48.42465         2.32117
H         56.15187        26.76216        -0.82430
H         54.02168        25.58999        -0.91630
H         55.73069        46.20501         2.69862
H         53.61509        47.44339         2.55123
H         57.43801        28.96629        -0.71631
H         57.41154        31.41224        -0.51168
H         57.34680        33.26863         0.45926
H         57.31782        35.70087         0.53082
H         57.30474        37.57546         0.89301
H         57.18347        39.92316         1.38129
H         57.16477        41.78354         1.67458
H         57.03584        44.13592         2.35474
