         272
 CSIRO Nanostructure Databank - Neutral Graphene Oxide Data Set
C        -11.19507         0.62311        -0.11595
C         -9.90046         1.35617        -0.03549
C         -8.67889         0.62213        -0.47413
C         -7.46267         1.40913        -0.89149
C         -6.15105         0.61266        -1.09794
C         -4.91425         1.40521        -0.57042
C         -3.84206         0.69805         0.18782
C         -2.56090         1.41762         0.54085
C         -1.28643         0.64906         0.54550
C          0.03306         1.35527         0.70278
C          1.23370         0.72897         0.06465
C          2.46642         1.57086         0.04176
C          3.75612         0.93025        -0.37972
C          5.01539         1.38302         0.36302
C          6.25850         0.95439        -0.44488
C          7.53585         1.53497         0.20000
C          8.81418         0.87461        -0.32584
C         10.09462         1.62791         0.18294
C         11.28609         0.81558        -0.30634
C         -9.84813         2.84409         0.04106
C         -8.71122         3.55794        -0.14221
C         -7.46707         2.89306        -0.65589
C         -6.18194         3.64337        -0.48854
C         -4.89952         2.89151        -0.38134
C         -3.73740         3.54475         0.30663
C         -2.58633         2.88755         0.63384
C         -1.37043         3.57072         1.31046
C         -0.02078         2.79356         1.16540
C          1.28316         3.59578         1.20800
C          2.53657         2.87727         0.82106
C          3.78946         3.67209         0.55921
C          5.07570         2.90803         0.67811
C          6.36954         3.68139         0.71497
C          7.52983         3.03808        -0.01781
C          8.84937         3.75397        -0.15646
C         10.01182         3.07204        -0.30539
C         -8.64931         5.07085         0.07600
C         -7.50457         5.71073        -0.74786
C         -6.20312         4.99654        -0.43673
C         -4.92192         5.77559        -0.30455
C         -3.82443         5.01533         0.43858
C         -2.54090         5.74775         0.66168
C         -1.25372         4.97785         0.71422
C          0.03810         5.73503         0.64481
C          1.20483         5.11570         1.41398
C          2.53325         5.87358         1.16431
C          3.80693         5.14568         0.78375
C          5.10905         5.90444         0.93602
C          6.49070         5.22668         0.75609
C          7.24217         5.73029        -0.48944
C          8.16132         4.71744        -1.12070
C         -7.41034         7.21973        -0.63129
C         -6.29896         7.89882        -0.25247
C         -5.16936         7.15687         0.45982
C         -3.80351         7.94364         0.45690
C         -2.53773         7.16546         0.18644
C         -1.23997         7.88947         0.02414
C          0.03520         7.21188         0.37353
C          1.19648         7.93060         0.32166
C          2.49226         7.30554         0.70561
C          3.73674         7.86732         0.07201
C          5.06658         7.35140         0.54694
C          6.38172         7.99550         0.07203
C          7.14609         7.02805        -0.83901
C         -6.20171         9.34989        -0.38848
C         -5.05642        10.05503        -0.23784
C         -3.76762         9.41709         0.11503
C         -2.48542        10.03640        -0.22790
C         -1.26126         9.37652        -0.08166
C         -0.02379        10.03896        -0.20638
C          1.21156         9.34007        -0.09564
C          2.41335         9.98294        -0.39526
C          3.68079         9.26518        -0.50617
C          4.97356         9.96508        -0.70183
C          6.16444         9.36919        -0.52060
C        -11.28661        -0.68410        -0.43585
C        -10.11805        -1.50381        -0.86830
C         -8.80343        -0.80416        -0.95479
C         -7.56103        -1.62496        -0.74684
C         -6.26405        -0.87460        -0.62242
C         -5.15466        -1.53472         0.14046
C         -3.86274        -0.77863         0.31080
C         -2.54940        -1.54793         0.46320
C         -1.34358        -0.71275        -0.12218
C          0.00533        -1.45179         0.05518
C          1.21754        -0.58133        -0.34373
C          2.45102        -1.29993        -0.82641
C          3.74452        -0.47405        -1.07344
C          5.06241        -1.29601        -0.88683
C          6.33108        -0.56791        -0.57632
C          7.48778        -1.31033         0.03477
C          8.80045        -0.57590         0.13488
C         10.08808        -1.33492         0.07631
C         11.27350        -0.53403        -0.34511
C        -10.13165        -2.99727        -0.72665
C         -9.02196        -3.72491        -0.45134
C         -7.75865        -2.99390        -0.13570
C         -6.53259        -3.74074         0.28110
C         -5.19162        -3.01170         0.34543
C         -3.91325        -3.67292        -0.11989
C         -2.63994        -2.89067        -0.25663
C         -1.34481        -3.60932        -0.62289
C         -0.03104        -2.79235        -0.74131
C          1.21241        -3.66031        -0.36762
C          2.47768        -2.82284        -0.72061
C          3.78303        -3.52172        -0.44853
C          5.06597        -2.82330        -0.79017
C          6.35719        -3.58048        -0.58366
C          7.52725        -2.80164        -0.03090
C          8.83830        -3.49303         0.14325
C         10.01826        -2.82233         0.09351
C         -9.06106        -5.23532        -0.14987
C         -7.69941        -5.96188        -0.37949
C         -6.55015        -5.26040         0.40760
C         -5.17310        -5.89661         0.09479
C         -3.86770        -5.16468        -0.06246
C         -2.58911        -5.90196        -0.43918
C         -1.32629        -5.10885        -0.71868
C         -0.01355        -5.87272        -0.84788
C          1.26480        -5.03235        -1.10270
C          2.54534        -5.80281        -0.66780
C          3.76932        -5.00379        -0.27004
C          5.04963        -5.80380        -0.28899
C          6.36354        -5.09027        -0.36401
C          7.65611        -5.79982         0.07641
C          8.71405        -4.88083         0.73604
C         -7.67803        -7.42855         0.09006
C         -6.48324        -8.09168         0.13274
C         -5.37897        -7.29357        -0.48520
C         -3.47162        -8.12322         0.82884
C         -2.47716        -7.32918        -0.01607
C         -1.12832        -7.96794         0.24821
C          0.03275        -7.33971        -0.51815
C          1.34204        -8.17543        -0.43564
C          2.59121        -7.28120        -0.33159
C          3.75391        -7.78482         0.45630
C          4.95870        -7.11315         0.40941
C          6.14440        -7.61746         1.07854
C          7.36349        -6.98754         0.97196
C         -6.22687        -9.49318         0.45445
C         -5.01476       -10.12797         0.50112
C         -3.67663        -9.53938         0.39948
C         -2.50492       -10.21445         0.20936
C         -1.16616        -9.52611        -0.08162
C          0.06416       -10.02313         0.66444
C          1.23574        -9.30162         0.59827
C          2.42834        -9.71032         1.28262
C          3.62575        -9.00825         1.22105
C          4.79579        -9.48184         1.92635
C          5.98911        -8.82947         1.85981
O         -0.21195        -6.90622        -1.86813
O         -5.95504         0.50800        -2.50785
H         -6.11887         1.39519        -2.89849
O         -2.74362        -7.00320        -1.38490
O         -7.44874        -5.86656        -1.79005
H         -6.80067        -6.54562        -2.07768
O          2.16772         2.97169         2.21405
O          9.51907        -0.82510         1.36736
O          7.13670        -2.08991         1.21763
O         -1.63285        -0.44804        -1.49652
H         -1.20692        -1.14147        -2.06831
O          7.31305         5.56102         1.82984
O          0.00530        -2.38992        -2.11549
H          0.16221        -3.19542        -2.66817
O         -6.59260        -1.68505        -1.81247
O         -4.31784        -5.63580         1.24815
O         -0.45881         4.97451        -0.50738
O          3.70810         4.58185        -0.57744
O          6.03612        -0.94611        -1.93702
O         -3.71411        -7.82268         1.99124
O          5.84691        -3.32849        -1.91523
O          5.80263        -5.78629        -1.53225
O         -8.96345         0.73603         0.95319
O         -1.96918         7.31029        -1.13963
O         -3.45855         5.51572         1.75558
O         -1.53085        -4.29472        -1.90398
O         -4.26656         0.09857         1.44777
O         -7.69475         2.32559        -2.00221
O          3.59813         8.02527        -1.35002
O          0.14116         1.70970         2.12208
O         -9.48685        -5.41382         1.19781
H         -8.74877        -5.12506         1.78530
O         -4.41472         2.26920        -1.63022
O          1.34976        -4.78226        -2.50287
H          1.32082        -5.65485        -2.95760
O          3.74022        -4.12601         0.89707
O         -9.55865        -1.03407        -2.16837
O         -4.99413        -7.58456        -1.60654
O          2.96902        -6.77917        -1.65200
O          3.09434         1.87089        -1.25356
O          5.82322         3.12719         1.91988
O          8.80624         0.88865        -1.76474
H          8.71835         1.82508        -2.05412
O          2.35210        -2.18637        -1.99271
O          0.21574        -1.67460         1.46587
H         -0.66367        -1.72405         1.92983
O          7.29641         3.53139        -1.44074
O          6.05439         1.49123        -1.75308
H          6.69172         1.06248        -2.36612
O         -2.36898        -1.84329         1.86156
H         -2.78484        -1.09578         2.36006
O          1.14155        -4.03297         1.00857
H          1.07431        -3.20943         1.55721
O         -9.86069         5.70121        -0.33806
H        -10.58083         5.44093         0.27092
O         -3.67520         8.88622         1.51988
O         -2.03562         0.78057         1.77428
O         -5.56936         6.87931         1.72683
O         -7.43748        -3.14082         1.27374
O         -3.55660        -3.00462        -1.37609
O          3.67266        -0.18256        -2.47381
H          4.43344         0.39982        -2.69482
O          5.09404         6.94278         1.93815
O          2.65868         6.96412         2.11090
O          1.46867        -8.93099        -1.61247
O         -5.27679        -2.14166         1.49570
O         -1.03783        -9.71925        -1.49010
H         -0.10617        -9.48312        -1.77984
O          7.23273         8.18858         1.21664
H          7.31503         7.29857         1.67605
O         10.12099         1.67737         1.62691
H         10.24548         0.74859         1.94629
O         -6.81469        -5.57792         1.78633
H         -6.04499        -5.27414         2.31793
O          7.49537         1.26975         1.60851
H          8.35069         1.59586         1.99458
O         -0.83016        -7.76278         1.64432
H         -1.65743        -7.84380         2.17318
O          0.85206         5.30707         2.79366
H          1.47003         4.77816         3.34359
O          4.94734         0.66016         1.59501
H          5.67892         0.98786         2.17370
O          8.35721        -4.68383         2.11523
H          8.04643        -3.76074         2.24463
O          8.29127        -6.32230        -1.11306
H          7.56671        -6.59044        -1.72688
O         -1.64328         3.67349         2.70534
H         -1.53261         2.77474         3.08898
O         -7.79095         5.45185        -2.14483
H         -8.76237         5.54140        -2.25923
O         -4.44833         6.07877        -1.61714
H         -5.17649         5.96459        -2.26430
H         12.16382        -1.08023        -0.69270
H         12.19736         1.35310        -0.61217
H         10.89621         3.54486        -0.76077
H          8.73043         5.09065        -2.00254
H          7.75821         7.43678        -1.65926
H          7.08002         9.95019        -0.70958
H          4.93073        11.00546        -1.06044
H          2.40407        11.06541        -0.59810
H         -0.00770        11.11866        -0.42132
H         -2.48587        11.09303        -0.54176
H         -5.05679        11.14165        -0.41161
H         -7.12010         9.88223        -0.68296
H         -8.25748         7.77633        -1.06458
H         -8.47333         5.27273         1.17103
H        -10.77522         3.36024         0.34054
H        -12.10680         1.18176         0.14694
H        -12.27182        -1.17545        -0.42024
H        -11.10008        -3.50505        -0.86295
H         -9.82843        -5.71100        -0.81172
H         -8.61486        -7.90667         0.41811
H         -7.12119       -10.11611         0.61860
H         -5.03735       -11.22180         0.64003
H         -2.53352       -11.29788         0.00298
H         -0.01875       -10.85910         1.37818
H          2.39325       -10.64402         1.86594
H          4.70356       -10.40350         2.51941
H          6.86611        -9.21980         2.39607
H          8.22998        -7.43670         1.48200
H          9.69966        -5.41354         0.69790
H         10.95729        -3.37397         0.26319
