         210
 CSIRO Nanostructure Databank - Neutral Graphene Oxide Data Set
C         30.70928        31.75998         2.33159
C         30.73152        33.00368         2.16947
C         30.63866        36.13954         1.65942
C         30.47365        37.32139         1.31925
C         30.43471        40.43081         0.46424
C         30.49471        41.66786         0.47001
C         33.01094        28.94405         1.54088
C         31.98981        29.51826         1.99545
C         32.90797        31.65842         1.38857
C         31.78501        30.92456         1.94051
C         32.94018        33.08048         1.34374
C         31.76944        33.84827         1.71180
C         32.94239        35.95510         1.21740
C         31.74848        35.24220         1.57007
C         32.90641        37.45203         1.12237
C         31.58625        38.10069         0.72947
C         32.86871        40.31491         0.22881
C         31.58174        39.53356         0.33631
C         32.85147        41.73367        -0.00172
C         31.60607        42.49822         0.12179
C         32.83169        44.35842        -0.50336
C         31.72644        43.86464        -0.11622
C         35.52379        27.40267         0.40960
C         35.33574        28.80807         0.50929
C         34.18232        29.45116         0.94727
C         35.31898        31.68583         0.38663
C         34.03467        30.91884         0.77013
C         35.33287        33.12892         0.64294
C         34.15083        33.80864         0.97930
C         35.40995        36.01133         0.96078
C         34.12865        35.25691         1.00533
C         35.43428        37.47884         0.76091
C         34.16050        38.23805         0.86693
C         35.32109        40.32378         0.11305
C         34.09537        39.63647         0.33261
C         35.34287        41.67302        -0.32465
C         34.08118        42.38631        -0.37137
C         35.23726        44.42459        -1.31501
C         34.06714        43.77931        -0.72869
C         35.43855        45.87326        -1.28480
C         37.81779        27.38776        -0.22551
C         36.54272        26.80304         0.01634
C         37.80287        28.81454        -0.06889
C         36.57530        29.53188         0.20973
C         37.82868        31.66368         0.13807
C         36.58889        30.93980         0.25778
C         37.84212        33.08425         0.16415
C         36.54041        33.86052         0.11522
C         37.90281        36.00676         0.31802
C         36.67652        35.25892         0.67025
C         37.88762        37.43468         0.37999
C         36.61598        38.14013         0.52818
C         37.88022        40.36905         0.21307
C         36.58686        39.63056         0.44609
C         37.84578        41.72526        -0.38447
C         36.60399        42.33348        -0.63085
C         37.85865        44.47262        -1.24874
C         36.59775        43.68413        -1.24877
C         37.86849        45.85688        -1.31641
C         36.54761        46.40483        -1.45162
C         40.14851        24.67028        -1.18570
C         39.13350        25.32482        -0.85553
C         40.25055        27.39413        -0.68308
C         38.99152        26.70527        -0.58350
C         40.26341        28.80777        -0.45141
C         39.04233        29.51599        -0.18736
C         40.28193        31.66585        -0.14657
C         39.05585        30.94419        -0.03888
C         40.26444        33.07847        -0.15226
C         39.05421        33.79947         0.01156
C         40.31251        35.97698        -0.04851
C         39.07180        35.27129         0.05635
C         40.32908        37.40436         0.06632
C         39.10373        38.14316         0.22540
C         40.31254        40.28231        -0.07773
C         39.13206        39.58729         0.11588
C         40.31134        41.68191        -0.42670
C         39.10681        42.36192        -0.65078
C         40.45719        44.53951        -1.23006
C         39.14386        43.67723        -1.41958
C         40.29223        45.98880        -0.77425
C         39.05956        46.63124        -1.09493
C         40.15871        48.73131        -0.65894
C         39.16321        48.02491        -0.98666
C         42.71120        24.69153        -1.54234
C         41.44158        25.24824        -1.26981
C         42.70834        27.39943        -0.93453
C         41.46368        26.67915        -0.98543
C         42.73762        28.80328        -0.62914
C         41.51373        29.51264        -0.45224
C         42.77273        31.60347        -0.14451
C         41.53934        30.93294        -0.25775
C         42.74511        33.08500         0.17761
C         41.55703        33.78723        -0.49607
C         42.74901        35.96926        -0.27716
C         41.54270        35.27695        -0.22475
C         42.77184        37.39744        -0.18199
C         41.56666        38.09346        -0.01197
C         42.77833        40.23042        -0.53852
C         41.61955        39.58896         0.21962
C         42.80653        41.71687        -0.30899
C         41.58603        42.39785        -0.47435
C         42.74865        44.52243        -0.18658
C         41.58808        43.81927        -0.52280
C         42.62922        45.98011         0.20555
C         41.43406        46.72766        -0.39455
C         42.66869        48.78412         0.00581
C         41.41342        48.17742        -0.34798
C         43.76153        25.37990        -1.48321
C         45.19684        27.40161        -0.96542
C         43.95906        26.73233        -1.15256
C         45.21626        28.77934        -0.58056
C         43.99851        29.48488        -0.47686
C         45.25736        31.61856        -0.11503
C         44.01149        30.90950        -0.20998
C         45.25209        33.06721        -0.07487
C         44.04415        33.76978        -0.12799
C         45.22008        35.94194         0.01967
C         44.03181        35.21156        -0.56543
C         45.29356        37.40108        -0.26029
C         44.02973        38.14401        -0.22870
C         45.29626        40.26076        -0.00174
C         44.07471        39.52325        -0.23999
C         45.26174        41.68909         0.10647
C         44.02123        42.40920        -0.09384
C         45.20899        44.55339         0.24216
C         43.98309        43.83421         0.02940
C         45.16824        46.00925         0.20658
C         43.97521        46.71110         0.08674
C         43.71848        48.08793         0.04487
C         47.50017        27.49559        -1.04553
C         46.46038        26.73470        -0.99841
C         47.76629        28.80039        -0.79318
C         46.51899        29.43959        -0.13197
C         47.72291        31.67021        -0.21829
C         46.51863        30.95272        -0.21824
C         47.73374        33.09232        -0.00857
C         46.51165        33.76505         0.02273
C         47.76115        35.95981         0.41396
C         46.49105        35.21302         0.27876
C         47.76041        37.35204         0.50101
C         46.58137        38.12376         0.04247
C         47.67185        40.25118         0.70657
C         46.50755        39.57435         0.26515
C         47.65655        41.68256         0.76936
C         46.45416        42.39445         0.44100
C         47.68037        44.52561         0.64161
C         46.43194        43.83917         0.44274
C         47.52933        45.93364         0.53903
C         46.47352        46.56626         0.33715
C         50.33795        28.96597        -0.70133
C         49.01695        29.55059        -0.93509
C         50.28553        31.67947        -0.06777
C         49.03104        31.02381        -0.53322
C         50.21932        33.06648         0.30319
C         48.98351        33.80284         0.25945
C         50.16769        35.91595         0.89572
C         48.97490        35.19983         0.53349
C         50.12330        37.32533         1.20782
C         48.90928        38.08427         0.95849
C         49.94401        40.23037         1.73237
C         48.84281        39.49470         1.08824
C         50.04008        41.70269         1.54906
C         48.86747        42.39309         1.10219
C         50.13336        44.36592         1.24755
C         48.86180        43.82719         0.96667
C         51.38421        29.59093        -0.46351
C         52.62982        31.70770         0.40717
C         51.51738        30.94827        -0.02472
C         52.52685        32.91978         0.72103
C         51.40931        33.77552         0.69971
C         52.47326        35.96907         1.38606
C         51.38366        35.16118         0.99047
C         52.44039        37.19510         1.64964
C         51.28789        38.00724         1.66974
C         52.38427        40.29043         2.15657
C         51.23550        39.39353         2.10313
C         52.33227        41.53232         2.20802
C         51.26936        42.40119         1.81066
C         51.19029        43.80019         1.62327
O         31.47594        38.45506        -0.65619
O         36.29145        35.49284         2.04911
O         35.78185        43.77228        -2.47387
O         33.55965        38.13784         2.22849
O         37.28905        40.28626         1.56674
O         45.52343        35.57734         1.38669
O         46.19230        37.75968        -1.34995
O         50.24054        39.72620         3.08282
O         49.04592        30.57899        -1.95747
O         34.30123        31.30807        -0.61667
O         36.26957        34.07340        -1.31740
H         35.98684        33.21549        -1.70226
O         42.35358        45.93638         1.64065
H         42.31318        46.86178         1.96579
O         40.98733        44.71885        -2.58796
H         41.80258        45.26084        -2.52935
O         41.88313        39.79433         1.63547
H         41.12287        39.44422         2.14609
O         41.77045        33.63318        -1.93806
H         40.97324        33.96896        -2.40047
O         42.50059        40.02202        -1.95214
H         43.27769        40.32146        -2.46845
O         39.08207        43.21588        -2.79223
H         39.50458        43.89429        -3.36499
O         42.52942        33.21826         1.61621
H         43.34015        32.91783         2.07864
O         46.63261        29.15098         1.29708
H         46.55609        28.17904         1.41241
O         44.19411        35.18838        -2.01274
H         43.44208        34.65555        -2.36933
