         234
 CSIRO Nanostructure Databank - Neutral Graphene Oxide Data Set
C          1.44878         1.91478         0.37671
C          1.41284         3.30606         0.54150
C          2.65110         1.25376         0.17390
C          2.59089         4.07899         0.50961
C          1.40232         6.26177         0.91841
C          1.39337         7.66238         0.98922
C          2.57074         5.50324         0.75931
C          2.56359         8.44923         0.90325
C          1.33551        10.61145         0.69844
C          1.31744        11.96015         0.78196
C          2.57118         9.86268         0.77020
C          2.57604        12.74879         1.03772
C          1.39353        14.97777         1.08330
C          1.40288        16.32159         1.06037
C          2.45685        14.15039         0.46650
C          2.42403        17.08013         0.30979
C          2.56906        18.52074         0.61925
C          3.86875         1.98366         0.10011
C          3.84205         3.41216         0.25909
C          5.09553         1.31463        -0.11745
C          5.05626         4.14328         0.12184
C          3.85858         6.19763         0.90017
C          3.85287         7.74569         0.98309
C          5.07595         5.55376         0.38597
C          5.08413         8.45968         0.62778
C          3.81032        10.59828         0.64856
C          3.81349        12.01332         0.57790
C          5.05761         9.89473         0.54226
C          5.00180        12.73864         0.26640
C          3.67122        14.83979        -0.11650
C          3.60064        16.34042        -0.28283
C          4.98391        14.14715        -0.02076
C          4.86155        17.13517        -0.66532
C          3.75385        19.15569         0.48537
C          4.96666        18.48506         0.05511
C          6.30230         2.02498        -0.27005
C          6.27507         3.46386        -0.19919
C          7.54235         1.37366        -0.48966
C          7.45714         4.19023        -0.47905
C          6.23528         6.31013         0.20199
C          6.25267         7.72415         0.39830
C          7.38937         5.65961        -0.46760
C          7.55568         8.42545         0.43022
C          6.26041        10.63337         0.42637
C          6.25455        12.03609         0.24381
C          7.54085         9.91432         0.57800
C          7.48438        12.76960         0.03199
C          6.18602        14.84777        -0.26431
C          6.16252        16.31970        -0.57079
C          7.43399        14.16941        -0.21634
C          7.43819        17.07359        -0.34895
C          6.15373        19.16370         0.14406
C          7.43005        18.53739        -0.08843
C          8.72985         2.09325        -0.73065
C          8.67413         3.54545        -0.79732
C          9.96807         1.41827        -0.85820
C          9.84861         4.28755        -1.14897
C          8.65650         6.41716        -0.72828
C          8.79211         7.76603        -0.11055
C          9.90446         5.69132        -1.04522
C          9.99305         8.55712        -0.45251
C          8.81834        10.65693         0.29422
C          8.73822        12.09552         0.00198
C         10.01536         9.92271        -0.17468
C          9.98076        12.79545        -0.08218
C          8.73636        14.92068        -0.47306
C          8.62894        16.31201         0.19404
C          9.99036        14.20617        -0.02678
C          9.90697        17.08477         0.08480
C          8.62757        19.19605        -0.01232
C          9.90030        18.48433        -0.02172
C         11.16029         2.08914        -1.24068
C         11.04021         3.52950        -1.59312
C         12.37626         1.44933        -1.38788
C         12.32165         4.29659        -1.85486
C         11.08206         6.46927        -1.26151
C         11.13910         7.86563        -0.97237
C         12.29278         5.79101        -1.76116
C         12.38051         8.60695        -1.07048
C         11.21385        10.67500        -0.36709
C         11.21992        12.09325        -0.16197
C         12.38469         9.99760        -0.76246
C         12.45691        12.82000        -0.08449
C         11.20073        14.89561         0.23007
C         11.14216        16.36765         0.44177
C         12.43425        14.22057         0.24215
C         12.41809        17.15867         0.54954
C         11.12104        19.19367        -0.10302
C         12.38779        18.55460         0.03510
C         13.58160         2.11320        -2.02487
C         13.59645         3.59205        -1.71435
C         14.85874         1.42661        -1.63769
C         14.78413         4.28583        -1.39011
C         13.62367         6.49330        -1.60699
C         13.61742         7.92394        -1.26263
C         14.82231         5.69207        -1.34002
C         14.86587         8.57391        -1.12729
C         13.60139        10.79710        -0.94633
C         13.66124        12.15401        -0.39041
C         14.90389        10.03765        -1.20066
C         14.96397        12.78871        -0.13452
C         13.68372        14.89533         0.80138
C         13.73395        16.42348         0.60219
C         15.02762        14.20460         0.41563
C         14.98840        17.15879         0.23546
C         13.55252        19.19003        -0.34317
C         14.93621        18.66902        -0.06800
C         15.98569         2.08760        -1.24206
C         16.01933         3.54365        -1.11819
C         17.16699         1.34424        -0.83982
C         17.14612         4.19185        -0.64962
C         16.15076         6.40119        -1.24512
C         16.05731         7.86115        -0.89357
C         17.18579         5.62948        -0.46701
C         17.26338         8.52091        -0.49915
C         16.21921        10.71933        -1.02653
C         16.22554        12.19060        -0.66265
C         17.37127         9.91032        -0.62127
C         17.49317        12.81463        -0.20056
C         16.27843        14.96484         0.08314
C         16.21722        16.39895        -0.13828
C         17.46970        14.27020        -0.11573
C         17.28563        17.08540        -0.67874
C         15.90373        19.07688        -1.13802
C         17.11444        18.41625        -1.26242
C         18.28412         1.96011        -0.36068
C         18.44760         3.46338        -0.43046
C         19.38198         1.19682         0.19745
C         19.20868         4.03081         0.74915
C         18.15395         6.24354         0.30171
C         18.08620         7.75138         0.52844
C         19.04764         5.39550         1.10558
C         19.37049         8.48351         0.95478
C         18.63480        10.60589        -0.35604
C         18.65416        12.07561        -0.24699
C         19.73385         9.80771         0.39352
C         19.97768        12.73447        -0.09867
C         18.72328        14.97121        -0.53780
C         18.60632        16.43360        -0.86500
C         20.03781        14.25518        -0.25436
C         19.75869        17.37178        -0.98913
C         18.19440        18.98600        -1.99403
C         19.52739        18.55498        -1.76109
C         20.25669         1.79008         1.04783
C         20.09837         3.18176         1.44241
C         20.78901         3.66466         2.57005
C         19.71918         5.82269         2.28114
C         19.83326         8.21813         2.22893
C         20.56001         4.96183         3.00633
C         20.56709         9.17900         3.03359
C         20.93218        10.54884         1.01119
C         21.01339        12.03730         0.68400
C         21.03238        10.32207         2.49820
C         22.10917        12.73587         1.10824
C         21.19562        14.89674         0.40347
C         21.03710        17.17364        -0.45591
C         22.19794        14.15755         0.97769
C         22.10399        18.03415        -0.77423
C         20.62561        19.37419        -2.13742
C         21.90135        19.09669        -1.66344
O          7.03441        16.69710        -1.69809
O          7.65051         6.31083        -1.78857
O         14.62163        16.96363         1.65288
O         11.64212        16.87671         1.75539
O          2.66673        14.17501        -0.96653
O          4.01579         6.90187         2.17073
O         18.59877        15.41220        -1.93678
O          8.37256        10.37785         1.68428
O         15.23616        13.07305         1.30196
O          8.50589         7.75776         1.33222
O         17.18501         7.95155         1.60402
O         12.96184         6.34612        -2.94068
O         20.44590        13.36379        -1.34270
O         11.46222         3.81555        -2.97117
O         19.76929         9.95109        -1.04211
O         14.15347        10.59975        -2.30783
O         21.29359        16.26591         0.57969
O         19.56164         7.05870         2.90875
O          2.47541        16.74534        -1.12524
O         16.36771        11.77511        -2.04202
O         22.10040         9.91294         0.42326
H         21.96621         9.92717        -0.55033
O          2.70447        12.92186         2.48726
H          2.77136        12.02994         2.88969
O         15.38938        19.35880         1.14273
H         15.04133        18.83556         1.90273
O         13.43393         1.97360        -3.47766
H         12.64797         2.51867        -3.72834
O         16.64251         6.43287        -2.64063
H         15.93098         6.80842        -3.20383
O         13.52437        14.70213         2.22443
H         14.09902        15.36004         2.67567
O         19.26843         3.73620        -1.61640
H         18.71986         3.54501        -2.40644
O          4.71703        17.48984        -2.05787
H          3.74880        17.55951        -2.23310
O          8.96066        15.04154        -1.90001
H          8.20208        15.55385        -2.28077
O          8.36862        16.08753         1.61116
H          9.22785        16.02144         2.08133
H          0.51098         1.34370         0.42137
H          0.44381         3.79029         0.72245
H          2.67253         0.16110         0.05589
H          0.42692         5.75478         0.90970
H          0.41394         8.15730         1.04148
H          0.38958        10.06740         0.56821
H          0.36184        12.50123         0.72590
H          0.63944        14.45298         1.68839
H          0.64127        16.89280         1.61214
H          1.68866        19.05776         1.00205
H          5.10042         0.21717        -0.19547
H          3.83968        20.21560         0.77135
H          7.57653         0.27395        -0.48011
H          6.15022        20.20447         0.50634
H          9.99441         0.32704        -0.71992
H          8.64744        20.28648         0.13407
H         12.44839         0.38100        -1.13113
H         11.09948        20.27239        -0.31595
H         14.87848         0.32844        -1.71183
H         13.48566        20.21767        -0.73223
H         17.10778         0.24451        -0.84386
H         15.75717        20.04793        -1.63350
H         19.43814         0.11743        -0.00847
H         18.02572        19.92497        -2.54150
H         21.05541         1.20600         1.52802
H         21.47162         3.00292         3.12108
H         21.04844         5.34180         3.91322
H         20.69224         8.95655         4.10266
H         21.56765        11.05961         3.11365
H         22.91907        12.20841         1.63122
H         23.04758        14.68221         1.43264
H         23.09026        17.85642        -0.32721
H         20.44404        20.25924        -2.76263
H         22.74482        19.74371        -1.94035
