         268
 CSIRO Nanostructure Databank - Neutral Graphene Oxide Data Set
C        -10.70981         0.75973         0.90337
C         -9.51219         1.48300         0.35337
C         -8.68778         0.52152        -0.54502
C         -7.47274         1.30468        -1.10844
C         -6.19575         0.49015        -1.32442
C         -4.99938         1.34573        -1.81800
C         -3.68846         0.64184        -1.95880
C         -2.38499         1.42988        -2.14640
C         -1.16400         0.59999        -1.83423
C          0.05049         1.24633        -1.71747
C          1.29890         0.51431        -1.80335
C          2.51319         1.14537        -2.07325
C          3.77579         0.57437        -1.75183
C          4.90249         1.41503        -1.14769
C          6.30511         0.67294        -1.26875
C          7.28730         1.36470        -0.28850
C          8.18230         0.51039         0.57031
C          9.06240         1.09870         1.61134
C         10.29385         0.36325         1.98917
C         -9.82924         2.80271        -0.30614
C         -8.69172         3.54833        -0.62332
C         -7.50198         2.81223        -1.15911
C         -6.21405         3.58346        -1.26705
C         -4.95252         2.88861        -1.82129
C         -3.64595         3.48036        -1.26736
C         -2.37515         2.82484        -1.54437
C         -1.16860         3.47737        -1.36842
C          0.05577         2.66411        -1.26196
C          1.60512         4.37560        -2.59576
C          2.74576         3.51501        -2.39801
C          3.85012         3.88699        -1.67509
C          5.09574         3.00786        -1.46428
C          5.91498         3.57624        -0.28943
C          7.04451         2.74990         0.23147
C          7.76555         3.18076         1.46208
C          8.82063         2.50895         1.98017
C         -8.60457         4.88919        -0.20077
C         -7.33854         5.42674         0.18475
C         -6.13074         4.84957        -0.46577
C         -4.79961         5.20612         0.10442
C         -3.60990         4.68773        -0.61618
C         -2.38630         5.52674        -0.59502
C         -1.21624         5.01724        -1.46947
C          0.05433         5.95612        -1.36604
C          1.43321         5.53381        -1.78861
C          2.61580         6.08568        -1.27200
C          3.95244         5.41790        -1.62935
C          5.21258         5.90836        -0.85118
C          5.82726         4.89052         0.09764
C          6.62031         5.38327         1.22804
C          7.21692         4.37959         2.17287
C         -7.22857         6.46101         1.08212
C         -5.95620         6.86597         1.78697
C         -4.69162         6.20784         1.21035
C         -3.31969         6.81215         1.55746
C         -2.30845         6.64665         0.39922
C         -0.96916         7.28658         0.62940
C          0.03871         7.17498        -0.47176
C          1.27155         8.04185        -0.35819
C          2.60501         7.49657        -0.84917
C          3.88013         8.18098        -0.44019
C          5.12162         7.34019        -0.26976
C          6.03858         7.76271         0.85164
C          6.79064         6.69415         1.52805
C         -5.83180         8.36179         1.91403
C         -4.64270         8.97560         2.05351
C         -3.36707         8.29343         1.90500
C         -2.20572         8.99151         2.02175
C         -0.90194         8.46268         1.56725
C          0.23295         9.40654         1.43273
C          1.25720         9.19039         0.57935
C          2.38375        10.18752         0.39418
C          3.75574         9.50621         0.28078
C          4.73779         9.81267         1.34281
C          5.73587         8.96890         1.65497
C        -10.52635        -0.44532         1.45420
C         -9.13794        -1.02351         1.53057
C         -8.29688        -0.78540         0.22925
C         -6.84219        -1.05736         0.52511
C         -5.84006        -0.49621        -0.20198
C         -4.40999        -1.04872        -0.19713
C         -3.65329        -0.80112        -1.50122
C         -2.42632        -1.61008        -1.79659
C         -1.20316        -0.83570        -2.23313
C          0.08244        -1.59407        -2.31445
C          1.27787        -0.97869        -1.59076
C          2.60489        -1.61527        -1.91395
C          3.76749        -0.86294        -1.70965
C          5.07902        -1.55329        -1.61711
C          6.18423        -0.81152        -0.99861
C          7.22108        -1.60171        -0.25554
C          8.49461        -0.85256         0.05081
C          9.65691        -1.60862         0.60874
C         10.55557        -0.88245         1.54801
C         -9.11668        -2.47432         1.87027
C         -7.92070        -3.15958         1.71790
C         -6.84508        -2.54878         0.83092
C         -5.46377        -3.14315         1.00670
C         -4.28611        -2.49095         0.34478
C         -3.19399        -3.39527        -0.16754
C         -2.20634        -2.86723        -1.03803
C         -0.98737        -3.65478        -1.32144
C         -0.04182        -3.12319        -2.39433
C          1.31568        -3.85456        -2.37059
C          2.60727        -3.06905        -2.23564
C          3.87358        -3.87570        -1.97677
C          5.12616        -3.06178        -1.70236
C          6.34533        -3.78686        -1.21343
C          7.52393        -3.00511        -0.74801
C          8.55614        -3.74648         0.03973
C          9.55134        -3.09348         0.67953
C         -7.84446        -4.52158         2.04108
C         -6.58869        -5.25981         1.99820
C         -5.35297        -4.56920         1.50312
C         -4.03904        -5.34494         1.22751
C         -3.23719        -4.78084         0.07769
C         -2.48891        -5.64762        -0.92059
C         -1.05752        -5.14879        -1.18169
C         -0.11505        -6.01785        -2.07031
C          1.31074        -5.36153        -2.14395
C          2.55214        -5.98212        -1.55054
C          3.74564        -5.29055        -1.50566
C          4.99573        -6.01482        -0.92956
C          6.27140        -5.18471        -0.63503
C          6.83626        -5.25890         0.76617
C          8.22207        -5.20749         0.18984
C         -6.62382        -6.72735         2.03421
C         -5.56250        -7.48847         1.65453
C         -4.27278        -6.88417         1.20601
C         -3.42673        -7.76904         0.34433
C         -2.53778        -7.17097        -0.70057
C         -1.44975        -8.06818        -1.20114
C         -0.11678        -7.46027        -1.57142
C          1.09485        -8.06526        -0.92096
C          2.51125        -7.46546        -1.05554
C          3.29886        -7.56679         0.25879
C          4.53441        -6.74803         0.36964
C          4.81071        -6.10705         1.73765
C          6.27831        -5.78470         1.85834
C         -5.74422        -8.92896         1.54385
C         -4.91970        -9.73442         0.82912
C         -3.72258        -9.22376         0.19120
C         -2.77293       -10.04251        -0.32581
C         -1.42825        -9.56565        -0.81168
C         -0.37843        -9.70748         0.26689
C          0.77812        -8.99066         0.21838
C          1.56460        -8.87486         1.42753
C          2.65437        -8.06281         1.50302
C          3.32132        -7.82616         2.77060
C          4.32910        -6.94113         2.89395
O          3.46532        -3.52731        -3.32759
O          2.45024         2.26686        -2.90126
O         -3.66982        -1.71684        -2.61340
O          4.65720        -8.17527         0.21191
O          6.34914         8.08491        -0.54942
O          9.65488        -1.05116        -0.77594
O         -0.43692         7.25594        -1.84323
O         -0.46308         7.10704         1.97472
O         -6.29898         4.90234        -1.91826
O         -2.81818         6.91615        -0.92834
O         -2.61515        -7.80492        -2.02160
O          8.00441         2.47609        -0.87885
O          1.78265         8.37705        -1.67992
O         -5.59478        -4.60723         2.95017
O          7.60855        -5.78001        -1.05725
O          1.05922         3.12833        -0.67753
O          5.46527        -2.24776        -2.86623
O          4.18583         9.43878        -1.11355
O         -0.39947        -4.36342        -0.16375
O         -7.81716         2.00882        -2.33719
O          7.77522         0.36349         1.98087
O         -4.56008         0.82425        -3.10946
O          0.67539        -8.44902        -2.27407
O         -4.72221         4.76995         1.53643
O          6.21234         5.95641        -1.99098
O         -4.49296        -2.37188         1.79427
O         -3.05493        -7.51683         1.73711
O          1.46351        -4.79488        -3.46956
O         -0.46286        -0.99639        -3.51570
O         -7.40416        -2.91119        -0.51624
O          7.46650        -3.47684        -2.10685
O         -8.56834        -1.95739        -0.65831
O          4.62177         1.38739         0.28431
H          3.71563         1.73602         0.42759
O         -1.67396         5.21556        -2.82624
H         -1.76942         6.18744        -2.95126
O         -8.64642         1.93286         1.44111
H         -8.60230         1.23214         2.14204
O          0.62697         3.94925        -3.38074
H          0.88220         3.08209        -3.77556
O         -2.26434         1.72892        -3.56636
H         -3.17199         1.96396        -3.88235
O          6.60273        -1.91088         1.06139
H          6.71158        -1.11766         1.64082
O         -9.52943         0.15507        -1.63475
H         -8.97557        -0.33018        -2.28478
O         -1.10172       -10.36580        -1.95821
H         -0.31275        -9.95434        -2.39081
O          2.40660        11.14081         1.44996
H          1.75643        11.84406         1.25480
O         -6.08728         6.36907         3.15087
H         -5.97243         5.39376         3.10389
O          5.86654         3.18191        -2.66911
H          6.13496         4.13546        -2.71066
O         -3.18895        -5.07000         2.36495
H         -3.78387        -4.95313         3.14434
O         -0.69392        -3.44781        -3.63278
H         -0.75490        -2.61613        -4.16656
O         -6.56510        -0.42797        -2.38067
H         -5.86101        -0.38247        -3.07640
O          6.15404         3.92111         3.03434
H          6.44830         3.09562         3.47255
O          7.55685         5.94132        -1.45782
H          7.67465         6.89244        -1.18742
O         -0.69453        -6.07892        -3.37302
H         -0.26692        -5.37346        -3.92367
O          4.04847        -4.86195         1.69701
H          4.14838        -4.41603         2.56412
O         -3.18729        -5.39073        -2.16906
H         -2.75356        -5.95212        -2.85886
O          3.11802        -8.29684        -2.04449
H          4.07974        -8.07155        -2.09839
O          6.81327         0.76412        -2.59889
H          6.87534         1.72162        -2.83958
O          0.97723        -1.27361        -0.17738
H          1.69477        -0.89231         0.37122
O         -4.87070         3.24309        -3.22089
H         -5.18732         4.17270        -3.30271
O         -2.81186         6.11128         2.70192
H         -3.23623         5.22390         2.71809
O          5.40666        -6.97392        -1.91460
H          6.36289        -7.16030        -1.78069
O          4.12606         5.81788        -3.02702
H          4.25883         6.79017        -3.05942
O         -3.66514        -0.19955         0.72694
H         -3.84245        -0.55375         1.63120
O         -8.40790        -0.37812         2.64215
H         -8.81182        -0.68824         3.48021
H         11.46853        -1.39848         1.88361
H         11.00005         0.86899         2.66491
H          9.35166         2.91585         2.85609
H          8.01960         4.86531         2.79849
H          7.37361         6.96903         2.42097
H          6.39182         9.17859         2.51331
H          4.54654        10.70040         1.96224
H          2.19509        10.72018        -0.57839
H          0.24633        10.29899         2.07761
H         -2.24309        10.05989         2.28687
H         -4.60497        10.06303         2.22275
H         -6.76296         8.94025         2.00168
H         -8.15398         6.88833         1.49869
H         -9.51143         5.36258         0.20646
H        -10.72604         3.34187         0.04436
H        -11.70849         1.21649         0.83501
H        -11.36701        -1.02565         1.86457
H         -9.96611        -2.93987         2.39159
H         -8.72987        -5.02125         2.46041
H         -7.57805        -7.21030         2.29190
H         -6.64524        -9.35045         2.01389
H         -5.12847       -10.81152         0.75323
H         -2.95626       -11.12647        -0.37673
H         -0.59298       -10.31216         1.16122
H          1.17473        -9.35549         2.33747
H          2.95866        -8.38192         3.64862
H          4.80335        -6.77317         3.87317
H          6.85302        -6.02134         2.76571
H          9.02574        -5.84796         0.61657
H         10.29218        -3.64120         1.28261
