         651
 CSIRO Nanostructure Databank - Neutral Graphene Oxide Data Set
C          6.30350        31.74757        -2.29355
C          6.30616        33.11499        -2.24385
C          8.48929        27.38591        -1.27062
C          8.49299        28.80898        -1.26677
C          7.41490        29.56347        -1.80202
C          8.58064        31.67782        -1.36248
C          7.42701        30.96849        -1.83217
C          8.60428        33.10938        -1.36974
C          7.45033        33.85567        -1.76660
C          8.60947        35.97214        -1.23241
C          7.47218        35.26045        -1.70264
C          8.66134        37.39628        -1.19270
C         10.68506        23.01688        -0.50336
C         10.63532        24.40630        -0.30427
C          9.55206        25.20480        -0.76410
C         10.59979        27.34415         0.01738
C          9.51559        26.61518        -0.68875
C         10.72921        28.79875        -0.15582
C          9.62341        29.52845        -0.72502
C         10.78396        31.66842        -0.21077
C          9.65103        30.92964        -0.79674
C         11.04095        33.04057        -0.79567
C          9.76473        33.82713        -0.94135
C         10.88876        35.93349        -0.13797
C          9.76341        35.20687        -0.83859
C         11.09057        37.32685        -0.68217
C          9.85481        38.11180        -0.92559
C         11.18639        40.19395        -0.62752
C          9.96523        39.50442        -0.93625
C         11.21417        41.60161        -0.55176
C         13.19454        18.70090        -0.84214
C         13.14659        20.10728        -0.70453
C         11.90866        20.84789        -0.56665
C         13.12868        22.89271         0.05902
C         11.86147        22.21767        -0.31168
C         13.10976        24.36153         0.37638
C         11.79804        25.07842         0.33565
C         13.11724        27.27102         0.63771
C         11.82299        26.56864         0.47572
C         13.07902        28.66518         0.61866
C         11.89412        29.41773         0.30281
C         13.25601        31.58254         0.36439
C         11.94148        30.89883         0.35255
C         13.31608        33.02741         0.22021
C         12.17309        33.77714        -0.12565
C         13.36820        35.87650         0.36201
C         12.18485        35.17307        -0.04180
C         13.45431        37.29532         0.33242
C         12.36963        38.03558        -0.32964
C         13.55002        40.18492         0.12895
C         12.38087        39.50040        -0.27440
C         13.62273        41.60610        -0.02629
C         12.39522        42.32045        -0.30464
C         13.20670        44.68579        -0.42965
C         12.22676        43.75346        -0.15566
C         13.18919        46.06204        -0.07718
C         15.76852        14.48786        -0.68809
C         15.67784        15.86883        -1.07416
C         14.48185        16.57632        -0.98961
C         15.60551        18.76320        -1.30334
C         14.41249        18.01723        -1.06852
C         15.56915        20.16451        -1.17057
C         14.37617        20.81961        -0.79929
C         15.58478        23.08915        -0.61555
C         14.41141        22.21470        -0.31514
C         15.58946        24.52065        -0.14762
C         14.36353        25.15681         0.40246
C         15.68144        27.17349         1.12719
C         14.36861        26.50868         0.67795
C         15.59899        28.68803         0.95490
C         14.28783        29.43047         1.08128
C         15.71260        31.54739         0.40154
C         14.38514        30.85816         0.59333
C         15.69630        32.99260         0.80518
C         14.50864        33.71729         0.60533
C         15.71077        35.80338         1.15057
C         14.52877        35.13495         0.71078
C         15.70898        37.22533         1.27544
C         14.60183        37.98318         0.80794
C         15.77902        40.13226         1.20920
C         14.66965        39.44588         0.71705
C         15.94494        41.55453         0.96380
C         14.90277        42.25032         0.20434
C         16.31859        44.30208         0.20395
C         15.19297        43.53812        -0.26438
C         16.28998        45.67911         0.13465
C         14.34212        46.86855        -0.14080
C         15.83757        48.75754         0.49019
C         14.53272        48.15518         0.34650
C         15.89466        50.16085         0.23341
C         18.32339        10.48242         0.51444
C         18.25528        11.71413        -0.15026
C         17.07106        12.47387        -0.15581
C         18.15894        14.37834        -1.42371
C         16.95908        13.76309        -0.73342
C         18.10925        15.89665        -1.35912
C         16.92022        16.57274        -1.38156
C         18.13285        18.77454        -1.48621
C         16.84742        18.03455        -1.80551
C         18.11585        20.25592        -1.58284
C         16.78469        20.98791        -1.42307
C         18.03279        23.08120        -0.93602
C         16.84594        22.39071        -0.97221
C         18.09836        24.43238        -0.30919
C         16.88529        25.21317         0.03627
C         18.29655        27.13581         0.54819
C         16.97306        26.49132         0.55529
C         18.53778        28.44259         1.04659
C         16.66331        29.48591         1.35765
C         18.12569        31.49766         1.07391
C         16.84798        30.84219         1.05477
C         18.13284        32.89446         1.23070
C         16.88150        33.63931         1.21743
C         18.10087        35.67708         1.96426
C         16.87455        35.03528         1.43478
C         18.09534        37.14205         2.30598
C         16.82232        37.89970         1.97894
C         18.11136        40.10444         2.35610
C         16.82961        39.40396         1.97211
C         18.11476        41.61235         2.25507
C         17.07754        42.23316         1.40664
C         18.09091        44.42017         2.07234
C         17.43712        43.61440         0.91887
C         18.10990        45.94067         1.86705
C         16.87073        46.56709         1.21834
C         18.25934        48.72600         1.04009
C         17.01752        48.03557         0.83127
C         18.23438        50.25660         1.05236
C         17.08309        50.87476         0.29622
C         18.38600        52.86797        -0.36674
C         17.16882        52.17890        -0.24167
C         18.44644        54.18107        -0.90108
C         20.77669         7.13900         3.05744
C         20.70860         7.95075         1.91936
C         19.51066         8.61710         1.55284
C         20.77909        10.24773         0.17632
C         19.50991         9.71409         0.66643
C         20.76549        11.51679        -0.60963
C         19.42768        12.18544        -0.99026
C         20.63620        14.41795        -0.89562
C         19.47935        13.71785        -1.00349
C         20.65278        15.89883        -1.09247
C         19.38626        16.63346        -1.43477
C         20.51762        18.85470        -0.90238
C         19.30092        18.11103        -1.28732
C         20.57403        20.33006        -0.95737
C         19.33570        21.03966        -1.34372
C         20.57570        23.12231        -0.94529
C         19.29068        22.39347        -1.14489
C         20.50765        24.58603        -1.28399
C         19.40913        25.16072        -0.41654
C         20.62449        27.29182        -0.28974
C         19.41295        26.58641        -0.12551
C         20.66553        28.69919        -0.03021
C         19.51141        29.31049         0.55483
C         20.58263        31.60388         0.29643
C         19.28450        30.79639         0.34876
C         20.60610        32.97998         0.86565
C         19.36313        33.63883         1.35112
C         20.61969        35.77619         1.61856
C         19.37464        34.97039         1.70341
C         20.65702        37.23092         1.95939
C         19.42705        37.90706         2.57815
C         20.65484        40.12571         2.10551
C         19.38172        39.39205         2.26489
C         20.73502        41.58452         2.44841
C         19.41307        42.34993         2.46135
C         20.69827        44.50238         2.48383
C         19.44625        43.78085         2.25399
C         20.65008        46.02377         2.44873
C         19.37002        46.72983         2.03973
C         20.65392        48.92022         1.82621
C         19.43105        48.09425         1.45462
C         20.69802        50.21695         1.05989
C         19.56108        50.88018         0.71188
C         20.80362        52.86150        -0.04888
C         19.60762        52.20281         0.07764
C         20.90718        54.16543        -0.71239
C         19.65803        54.88199        -1.05936
C         21.00721        56.86033        -1.71549
C         19.76502        56.17030        -1.61052
C         21.14768        58.01441        -2.47330
C         23.10052         4.89992         4.96736
C         21.92351         5.50043         4.47984
C         23.25518         7.33495         3.58783
C         21.97332         6.68653         3.72955
C         23.39079         8.62925         3.02714
C         21.89406         8.23721         1.05058
C         23.26837        10.37593         0.56972
C         21.96718         9.62527         0.50228
C         23.29040        11.75204        -0.02924
C         22.05250        12.27964        -0.70819
C         23.22337        14.57566        -0.50309
C         21.99486        13.77706        -0.86708
C         23.11136        16.01490        -0.16409
C         21.79148        16.67251        -0.49776
C         23.12362        18.77113        -1.06546
C         21.80468        18.14369        -0.62940
C         23.07430        20.27700        -1.11392
C         21.91027        20.97342        -1.06622
C         23.10594        23.21402        -1.40720
C         21.90416        22.44603        -1.00693
C         23.06648        24.58285        -1.44171
C         21.83220        25.28500        -1.10812
C         23.04105        27.42287        -0.91359
C         21.81584        26.60842        -0.73988
C         23.12555        28.69320        -0.13881
C         21.88183        29.41109         0.03096
C         23.16610        31.55397         0.42124
C         21.89694        30.90454        -0.09881
C         23.16369        32.86021         0.94488
C         21.90515        33.54465         1.33044
C         23.19877        35.69378         1.77400
C         21.89670        35.00819         1.68762
C         23.30544        37.15476         2.12444
C         21.99723        37.90426         2.23449
C         23.27549        40.15602         2.31174
C         21.97614        39.40142         2.00759
C         23.21210        41.65288         2.03747
C         21.99700        42.34757         2.21207
C         23.20679        44.47414         2.17976
C         21.98954        43.76931         2.29921
C         23.24233        45.95007         2.32034
C         21.96105        46.76983         2.38105
C         23.18927        48.74697         1.55398
C         21.98595        48.15953         1.82572
C         23.28251        50.05843         0.85367
C         22.00548        50.80349         0.68443
C         23.29360        53.04873         0.71926
C         22.00819        52.28875         0.58627
C         23.38272        54.37806         0.07719
C         22.20059        54.90872        -0.65813
C         23.53095        56.85588        -1.37708
C         22.18049        56.40573        -0.86599
C         23.62255        57.98521        -2.22411
C         22.42916        58.61968        -2.71877
C         23.82939        60.26291        -3.85956
C         22.55925        59.75891        -3.52595
C         24.34716         5.42570         4.67184
C         25.71878         7.18289         3.57017
C         24.46511         6.63961         3.93284
C         25.79071         8.25614         2.64994
C         24.56809         8.93722         2.28886
C         25.76400         9.94957         0.49116
C         24.53716         9.73457         1.09443
C         25.79645        11.90939        -0.38338
C         24.55057        12.52542        -0.26778
C         25.70624        14.65703         0.04092
C         24.51441        13.92644        -0.15682
C         25.68567        16.13867         0.43660
C         24.35695        16.83086         0.10810
C         25.57898        18.85280        -0.69791
C         24.38643        18.24303        -0.38967
C         25.64333        20.14692        -1.51530
C         24.32984        20.94796        -1.54777
C         25.64919        23.14665        -1.69369
C         24.32922        22.43441        -1.75602
C         25.61624        24.64819        -1.69731
C         24.25788        25.36112        -1.98950
C         25.57776        27.58019        -1.57253
C         24.24376        26.83816        -1.56548
C         25.49576        28.98949        -1.05324
C         24.46057        29.50664        -0.21850
C         25.59902        31.73119         0.04458
C         24.39603        30.94936         0.11410
C         25.60570        33.06599         0.59649
C         24.38757        33.54946         1.14780
C         26.14911        36.01836         1.56520
C         24.27296        34.84796         1.79609
C         25.90965        37.40782         1.44218
C         24.52294        37.96938         1.63680
C         25.66570        40.27400         1.35607
C         24.43173        39.47645         1.58246
C         25.66163        41.64563         1.51623
C         24.42617        42.35977         1.84980
C         25.67681        44.50598         1.76873
C         24.42734        43.78346         1.91046
C         25.67897        45.95335         1.85069
C         24.49287        46.65089         1.98796
C         25.74681        48.82835         1.68039
C         24.46872        48.15364         2.11517
C         25.80008        50.17536         1.37705
C         24.61908        50.81234         0.67761
C         25.76714        53.01834         1.09022
C         24.52968        52.29292         0.94313
C         25.78934        54.53009         0.62892
C         24.58249        55.01980        -0.07310
C         25.96854        56.62094        -1.40869
C         24.68883        56.18889        -0.95295
C         26.06863        57.75255        -2.20248
C         24.90794        58.46600        -2.61565
C         24.98565        59.62825        -3.43201
C         27.02964         8.74487         2.13558
C         28.20282        10.47800         0.74321
C         27.03612         9.70596         1.11136
C         28.22348        11.80633         0.26357
C         26.99752        12.55833        -0.04691
C         28.19029        14.68432         0.40995
C         26.92986        13.95580         0.15447
C         28.17521        16.19322         0.22859
C         26.90146        16.88388        -0.05497
C         28.12828        18.81605        -1.06731
C         26.86195        18.16833        -0.51223
C         28.10846        20.33758        -0.97291
C         26.86313        21.00984        -1.14746
C         28.04407        23.18114        -0.96943
C         26.83809        22.40972        -1.17941
C         27.98991        24.58307        -0.79534
C         26.72199        25.33549        -0.93974
C         27.90381        27.68735        -0.44821
C         26.67803        26.83468        -0.80544
C         27.95996        29.06076        -1.13651
C         26.66042        29.85784        -1.39573
C         27.91305        31.96419        -0.84804
C         26.69784        31.18295        -0.66386
C         27.99236        33.30126        -0.25331
C         26.71830        34.00894         0.10258
C         28.20009        36.07052         0.36817
C         27.06383        35.31993         0.79020
C         28.15754        37.48816         0.49392
C         26.94444        38.14874         0.86675
C         28.10131        40.34257         0.62248
C         26.78016        39.61469         0.56957
C         28.08737        41.75750         0.92047
C         26.89361        42.40043         1.30153
C         28.13827        44.54351         1.48072
C         26.88639        43.82206         1.51992
C         28.15493        45.95166         1.69972
C         26.94118        46.67506         1.82585
C         28.19781        48.81362         1.96443
C         26.96054        48.09562         1.84770
C         28.24901        50.23215         1.80854
C         27.05175        50.90773         1.42124
C         28.27575        53.08023         1.15434
C         27.04380        52.31267         1.20892
C         28.30572        54.42647         0.73918
C         27.10899        55.25305         0.37781
C         27.17876        55.78154        -1.07554
C         29.44427        12.54753         0.26983
C         30.65236        14.72659         0.24323
C         29.47471        13.96212         0.24491
C         30.65626        16.15805         0.12182
C         29.43216        16.86700        -0.07903
C         30.60684        18.92488        -0.58292
C         29.40730        18.21168        -0.50184
C         30.58672        20.28180        -1.26592
C         29.31597        21.06511        -0.96418
C         30.54741        23.24646        -0.97525
C         29.31229        22.48618        -0.94949
C         30.52318        24.65516        -0.87033
C         29.23676        25.33648        -0.58209
C         30.44674        27.52632        -1.03926
C         29.21556        26.85511        -0.50733
C         30.42007        28.98859        -1.33961
C         29.13889        29.73439        -1.22883
C         30.45715        31.83131        -0.80145
C         29.20023        31.22073        -1.27378
C         30.35376        33.03594        -0.17352
C         29.22238        33.92838        -0.15259
C         30.59737        36.11628        -0.23540
C         29.39974        35.36908         0.02183
C         30.48927        37.55358        -0.27524
C         29.31710        38.23683         0.10745
C         30.46599        40.49474        -0.13259
C         29.26017        39.68289         0.25422
C         30.52599        41.83652         0.53079
C         29.34177        42.48451         0.90194
C         30.61190        44.60599         1.20520
C         29.36592        43.87911         1.24620
C         30.65035        46.01227         1.44693
C         29.40517        46.64968         1.78911
C         31.10523        49.10848         1.47221
C         29.34729        48.00285         2.17897
C         30.63324        50.34323         1.09641
C         29.55836        51.01620         1.95511
C         29.46556        52.44590         1.53062
C         31.84806        16.91594         0.11082
C         33.00787        19.09191        -0.01417
C         31.82560        18.29511        -0.17135
C         33.00926        20.45167        -0.28137
C         31.92725        21.06149        -1.14690
C         33.01012        23.25779        -0.81428
C         31.81936        22.55686        -0.96292
C         33.04487        24.71690        -1.17489
C         31.73595        25.42832        -0.90037
C         32.97297        27.59532        -1.04456
C         31.74244        26.81844        -0.92538
C         32.96262        28.96380        -1.25562
C         31.71370        29.76250        -1.56589
C         32.97574        31.99260        -1.40056
C         31.79464        31.10816        -0.79647
C         33.19033        33.40862        -0.87847
C         32.18766        34.18293        -0.25420
C         32.95456        36.20619        -1.38797
C         31.89726        35.51737        -0.51771
C         32.96030        37.71663        -1.12309
C         31.69058        38.35879        -0.63187
C         32.97071        40.40422        -0.04856
C         31.76347        39.73410        -0.10929
C         32.99396        41.81035         0.29530
C         31.78150        42.50840         0.57606
C         33.05509        44.60207         0.80016
C         31.81019        43.89773         0.88758
C         33.03674        46.01288         0.84565
C         31.87043        46.75095         1.12041
C         31.96357        48.16202         0.87122
C         34.17089        21.25827        -0.03912
C         35.53175        23.31833        -0.29628
C         34.21277        22.58861        -0.39493
C         35.43085        24.82573        -0.29009
C         34.24263        25.48042        -0.65938
C         35.43991        27.60618        -0.65302
C         34.23262        26.88935        -0.79522
C         35.52860        28.99425        -1.11499
C         34.21723        29.73416        -1.43804
C         35.50383        31.87111        -1.34695
C         34.27208        31.20058        -1.34757
C         35.53871        33.32520        -1.44757
C         34.36498        34.08407        -1.28898
C         35.49181        36.26529        -1.24608
C         34.33192        35.54986        -1.24737
C         35.52285        37.77096        -1.24923
C         34.22952        38.41685        -0.83001
C         35.47931        40.41366        -0.10057
C         34.22126        39.70713        -0.34027
C         35.46488        41.76833         0.21540
C         34.24377        42.49842         0.36543
C         34.25476        43.88811         0.58331
C         36.57999        25.56934         0.01697
C         37.81847        27.74022        -0.00793
C         36.61627        26.96344        -0.19135
C         37.88481        29.09074        -0.30157
C         36.72648        29.79043        -0.83222
C         38.08571        31.83447        -1.23699
C         36.74238        31.14450        -1.12448
C         38.03898        33.33341        -1.07558
C         36.82606        34.03786        -1.51237
C         37.99538        36.22087        -0.79575
C         36.79952        35.56872        -1.37194
C         37.91405        37.58829        -0.43684
C         36.73830        38.34640        -0.56689
C         36.69671        39.67950        -0.14876
C         39.07994        29.86384        -0.04632
C         40.34442        31.96833        -0.09903
C         39.16670        31.18357        -0.39737
C         40.36118        33.31770        -0.26862
C         39.17254        34.04439        -0.69461
C         39.14713        35.46899        -0.56477
O         24.14504        21.54426        -2.89994
O         16.30166        38.66271         3.12529
O         19.09014        24.39747         0.78481
O         17.35601        20.73340        -2.75546
O         22.72992        37.50386         3.42274
O         28.20516        15.56328         1.56600
O         30.51607        48.57100         2.66714
O         30.24914        27.98733        -2.43491
O         25.80762        10.56479        -0.77058
O         26.20683        26.01543         0.29127
O         20.27680        19.67879         0.32617
O         17.70681        28.87957         2.06839
O         21.53029        17.52648         0.66420
O         26.05304        23.92775        -2.87724
O         22.73193         7.38841         0.76447
O         20.11263        41.91188         3.70616
O         35.06154        29.16833        -2.49527
O         21.33701        39.82282         0.78727
O         22.71203        46.50685         3.60820
O         20.54510        45.33297         3.71927
O         23.03392        11.61249         1.42785
O         20.46468        32.78588        -0.59362
O         13.94991        22.22589         1.08201
O         25.62214        54.19703         1.99857
O         23.45837        16.40280         1.19423
O         21.62086        11.46035        -1.82255
O         37.00835        34.93276        -2.66563
O         32.70944        20.77851        -2.31339
O         28.44424        31.94047        -2.28154
O         21.80895        33.95366         2.73148
O         24.06865        28.66144         0.95907
O         18.36234        46.62799         3.13539
O         10.78372        26.97220         1.42770
O         22.30634        52.95873         1.86123
O         15.28993        24.16602        -1.58171
O         35.69091        38.10110        -2.74455
O         17.74430        40.97978         3.51763
O         12.27959        24.49969         1.58933
O         20.53434        36.81768         0.56913
O         15.46644        46.27260        -0.78242
O         14.33519        44.18958        -1.13760
O         32.06442        38.39023        -2.09350
O         17.88528        36.15255         3.35755
O         23.28856        27.61630        -2.35806
O         25.39899        35.29345         2.47039
O         22.87055        14.31234        -1.91288
O         21.88707        54.13038        -1.85089
O         10.93479        31.53702         1.22854
O         20.34221        16.24404        -2.49200
O         12.10450        37.47353        -1.70572
O         24.09168        38.67851         0.40150
O         21.30076        22.87446         0.28929
O         29.38502        26.11076         0.71648
O         22.57570        50.05330        -0.45304
O         31.40062        33.45894         0.65612
O         10.43837        36.13544         1.24191
H         10.28065        35.25470         1.64392
O         32.15471        30.76778         0.55729
H         32.06325        31.58615         1.09781
O         15.83729        46.50979         2.25447
H         16.29169        46.71769         3.10283
O         22.01647        31.06654        -1.55408
H         21.70975        31.97921        -1.76600
O         22.39117         9.52632         3.16222
H         22.64315        10.40150         2.78734
O         32.57893        35.98084        -2.76282
H         32.06825        36.77208        -3.05503
O         20.10136        24.74400        -2.66852
H         20.90014        24.87719        -3.22195
O         27.73208        28.07780         0.93211
H         27.44889        27.27282         1.42414
O         27.20822        54.66691        -1.97106
H         27.99806        54.12647        -1.76086
O         21.98936        56.99342         0.45444
H         22.03737        57.96787         0.36205
O         38.49216        31.62378        -2.63779
H         39.30401        32.15182        -2.79250
O         16.72629        18.02036        -3.26042
H         16.81134        18.95858        -3.55510
O         24.99443        50.71104        -0.74054
H         24.15339        50.58965        -1.24650
O         26.34364        39.71231        -0.82977
H         25.45608        39.27980        -0.87075
O         25.81020        16.15892         1.88107
H         24.90620        16.03324         2.25205
O         26.60870        30.12967        -2.83997
H         27.33503        30.77869        -3.03578
O         23.24930        18.32293        -2.45211
H         24.08905        18.69815        -2.82284
O         24.44947        48.48819         3.54390
H         23.76083        47.91027         3.96468
O         18.76230        30.83321        -1.03616
H         19.14715        31.63688        -1.45976
O         14.10599        29.55005         2.54124
H         14.10151        28.63632         2.90704
O         30.28798        40.80091        -1.57167
H         30.48330        39.97953        -2.07562
O         20.47232        49.28363         3.22952
H         19.61700        49.77851         3.28545
O         19.11837        11.74337        -2.32743
H         19.95759        11.76297        -2.84104
O         17.30831        44.15923         3.25271
H         17.73278        44.64576         3.99360
O         29.96633        51.04027         3.34504
H         30.22557        50.11899         3.58529
O         15.72079        26.93650         2.56603
H         16.52685        27.38868         2.90718
O         28.15747        18.46744        -2.47834
H         28.93865        18.94041        -2.86727
O         33.18153        24.72887        -2.63858
H         33.19632        25.66595        -2.92925
O         32.70941        32.30759        -2.78612
H         32.71162        31.47223        -3.31073
O         30.44226        19.95145        -2.68311
H         31.36391        20.09987        -3.05768
O         19.66922        37.84763         4.00534
H         18.83787        38.08289         4.47087
O         31.73725        30.00459        -2.99448
H         31.40559        29.17913        -3.42077
O         18.51754        43.47440        -0.07342
H         18.15681        43.00872        -0.85848
O         24.07431        25.34858        -3.41506
H         24.70849        25.99745        -3.79550
O         18.02763        14.09768        -2.84589
H         18.73834        14.59420        -3.30762
O         25.82706        19.66693        -2.87273
H         25.65592        20.42936        -3.47394
O         26.01888        27.55207        -2.95588
H         26.13432        28.48511        -3.27441
O         23.58604        40.02796         3.71756
H         22.85537        40.41079         4.24744
O         18.00437        50.57704         2.47438
H         17.13585        50.19366         2.72343
O         26.14551        34.49433        -1.17759
H         26.28911        33.79673        -1.85360
O         15.98162        31.50913        -1.05422
H         16.93727        31.26917        -1.17518
O         11.49835        32.77217        -2.16065
H         11.68186        33.63130        -2.59625
O         27.08899        56.43302         1.22271
H         26.93876        56.12804         2.14367
O         36.28030        22.86369         0.84083
H         35.78871        23.10935         1.65092
O         35.67499        39.52896        -2.88432
H         34.74517        39.71937        -3.16160
H          5.41583        31.21536        -2.66663
H          5.42133        33.67703        -2.57779
H          7.64952        26.86635        -1.75793
H          6.53160        29.02837        -2.18310
H          6.58618        35.82626        -2.02893
H          7.75207        37.96301        -1.44638
H          9.79298        22.51877        -0.91484
H          8.71853        24.69443        -1.27213
H          9.07263        40.11344        -1.14709
H         10.28302        42.16163        -0.72270
H         12.26978        18.11636        -0.72357
H         10.96764        20.30830        -0.75531
H         11.24306        44.10587         0.18883
H         12.29799        46.45526         0.43082
H         14.87048        14.00865        -0.26602
H         13.55742        16.03123        -0.74310
H         13.65320        48.76697         0.59627
H         14.99983        50.64773        -0.18351
H         17.41845        10.12198         1.02948
H         16.18947        12.06176         0.36254
H         16.25126        52.63905        -0.64047
H         17.50416        54.67348        -1.18615
H         19.81775         6.81659         3.50061
H         18.57714         8.37203         2.08428
H         18.86564        56.64386        -2.03493
H         20.27207        58.42321        -3.00177
H         23.02542         3.96200         5.53554
H         20.95988         4.98873         4.61795
H         23.90182        61.16015        -4.49020
H         21.65740        60.25476        -3.91284
H         25.25894         4.89864         4.98767
H         26.64301         6.69663         3.91277
H         27.05671        58.09578        -2.54418
H         25.97195        60.01616        -3.72409
H         27.97379         8.39594         2.57946
H         29.16904        10.08497         1.10271
H         29.27433        54.94838         0.75610
H         28.11641        56.39246        -1.19666
H         30.39432        12.00041         0.37524
H         31.62349        14.20804         0.24877
H         30.93097        50.78980         0.13859
H         30.39887        53.02848         1.54154
H         32.80773        16.42850         0.33517
H         33.91186        18.61681         0.39679
H         33.96981        46.55711         0.63580
H         32.79323        48.50836         0.23696
H         35.05986        20.79111         0.41209
H         36.13848        23.03117        -1.19945
H         36.41767        42.30052         0.35245
H         35.21086        44.43190         0.56843
H         37.48760        25.04075         0.34280
H         38.71243        27.23045         0.38149
H         38.80187        38.06854         0.00321
H         37.62060        40.16316         0.20328
H         39.91991        29.37621         0.47273
H         41.22477        31.45105         0.31150
H         41.25904        33.89860        -0.01314
H         40.04075        35.97258        -0.16671
