         277
 CSIRO Nanostructure Databank - Neutral Graphene Oxide Data Set
C        -11.01947         0.48338        -1.55075
C         -9.70795         1.23301        -1.67445
C         -8.66857         0.54560        -0.81203
C         -7.42138         1.31894        -0.37196
C         -6.16926         0.57661        -0.28545
C         -4.88958         1.27680        -0.71921
C         -3.61216         0.53969        -0.15182
C         -2.60211         1.43966         0.57458
C         -1.34870         0.70040         0.96838
C          0.02133         1.36868         1.02967
C          0.88307         0.79122        -0.13515
C          2.28760         1.43090        -0.26854
C          3.55581         0.64751        -0.21590
C          4.83949         1.39865        -0.59015
C          6.05266         0.71036         0.03396
C          7.40539         1.45795        -0.18175
C          8.53914         0.72683        -0.85602
C          9.88427         1.44545        -1.11287
C         10.99256         0.57994        -0.51327
C         -9.80444         2.71938        -1.51551
C         -8.66473         3.50675        -1.07289
C         -7.39855         2.80565        -0.56040
C         -6.08995         3.48429        -0.64280
C         -4.91169         2.78973        -0.51198
C         -3.65165         3.50622        -0.28649
C         -2.56346         2.89405         0.28000
C         -1.38226         3.72868         0.76669
C         -0.06945         2.92187         0.97564
C          1.21227         3.60199         0.61765
C          2.40563         2.86749         0.12876
C          3.72403         3.41505         0.64848
C          4.85374         2.91654        -0.24950
C          6.13220         3.69883        -0.29817
C          7.43154         2.95342        -0.25347
C          8.69094         3.70883        -0.51604
C          9.97749         2.89138        -0.55086
C         -8.53420         4.87977        -1.69490
C         -7.34734         5.67104        -1.18972
C         -6.14765         5.00060        -0.53173
C         -4.87208         5.64227        -1.04605
C         -3.59735         4.92620        -0.74112
C         -2.38305         5.72763        -0.46230
C         -1.14158         4.87907        -0.26234
C          0.06572         5.76301         0.07163
C          1.32083         5.06331         0.36562
C          2.50741         5.75841         0.93024
C          3.76541         4.94495         0.97284
C          5.05496         5.70880         0.88013
C          6.18377         5.20411        -0.00951
C          7.56955         5.75629         0.45570
C          8.72381         5.02893        -0.21389
C         -7.35415         7.01005        -1.33254
C         -6.16692         7.91969        -1.10559
C         -4.84427         7.14112        -1.16606
C         -3.59989         7.87613        -0.78120
C         -2.37904         7.09019        -0.44359
C         -1.08302         7.88313        -0.29118
C         -0.16609         7.12773         0.68465
C          1.16013         7.90449         1.11841
C          2.47683         7.12616         0.97224
C          3.72327         7.91832         1.14174
C          5.04411         7.20956         1.06422
C          6.32770         7.98237         0.63713
C          7.46567         7.23137         0.14353
C         -6.19220         8.72206         0.18160
C         -5.08519         9.36849         0.56808
C         -3.78351         9.30538        -0.22704
C         -2.61547         9.72215         0.68999
C         -1.25539         9.29378         0.21417
C         -0.11344         9.98456         0.46027
C          1.18985         9.31162         0.50263
C          2.36838         9.96226         0.31641
C          3.67298         9.38672         0.71820
C          4.91817         9.99348         0.19466
C          6.11781         9.37717         0.18730
C        -11.01880        -0.85865        -1.43749
C         -9.77969        -1.63219        -1.32684
C         -8.55567        -0.91113        -1.02295
C         -7.38469        -1.55991        -0.68251
C         -6.19189        -0.84204        -0.26564
C         -5.02506        -1.55774         0.11621
C         -3.94190        -0.70001         0.72598
C         -2.65667        -1.46287         1.06855
C         -1.35185        -0.77865         0.79606
C         -0.23320        -1.46630         0.43424
C          0.98014        -0.74444        -0.04852
C          2.29923        -1.47411        -0.13802
C          3.57094        -0.70512        -0.05414
C          4.85266        -1.42315         0.28074
C          6.08459        -0.80067        -0.34914
C          7.44654        -1.38105         0.09483
C          8.50251        -0.77502        -0.86840
C          9.81742        -1.48129        -1.24938
C         10.95605        -0.75979        -0.54914
C         -9.80465        -3.00542        -1.32959
C         -8.56807        -3.78515        -1.26593
C         -7.26765        -3.00415        -0.91045
C         -6.17143        -3.74405        -0.27458
C         -5.01700        -2.99591         0.21995
C         -3.89913        -3.68661         0.71015
C         -2.67461        -2.95624         1.09473
C         -1.35328        -3.68980         1.07118
C         -0.20638        -2.95983         0.42203
C          1.07672        -3.70544         0.21658
C          2.40233        -3.00924        -0.10415
C          3.59454        -3.62610         0.63258
C          4.89195        -2.86740         0.64404
C          6.20152        -3.68660         0.72483
C          7.47473        -2.90772         0.24322
C          8.64900        -3.66497        -0.29331
C          9.82201        -3.03210        -1.03031
C         -8.58643        -5.21171        -0.94798
C         -7.43809        -5.87453        -0.57331
C         -6.23645        -5.12449        -0.23018
C         -5.14154        -5.88249         0.40806
C         -3.92218        -5.14858         0.91205
C         -2.63421        -5.93358         1.15688
C         -1.31389        -5.18293         1.19903
C         -0.01033        -5.98875         0.98958
C          1.16324        -5.16967         0.46014
C          2.34531        -5.80517         0.19479
C          3.63016        -5.11448         0.48411
C          4.91212        -5.81027         0.21103
C          6.09482        -5.09998         0.14269
C          7.32586        -5.79003        -0.23433
C          8.50583        -5.12300        -0.47134
C         -7.46505        -7.31857        -0.37125
C         -6.33386        -8.04708        -0.11786
C         -5.04811        -7.31804         0.00417
C         -3.79629        -8.07740         0.21631
C         -2.61937        -7.41181         0.86786
C         -1.29694        -8.17551         0.74711
C         -0.23537        -7.24080         0.12726
C          1.07850        -8.00515        -0.15558
C          2.36964        -7.24160        -0.14625
C          3.67059        -7.94105        -0.18818
C          4.86074        -7.24076        -0.08384
C          6.12229        -7.93797        -0.29075
C          7.29039        -7.22455        -0.38482
C         -6.30653        -9.48470         0.05667
C         -5.15490       -10.18934         0.25747
C         -3.84140        -9.56768         0.25588
C         -2.66362       -10.24763         0.18923
C         -1.39087        -9.48854        -0.12946
C         -0.11598       -10.23827         0.12675
C          1.17719        -9.48645         0.24759
C          2.38740       -10.17155        -0.40294
C          3.66296        -9.38280        -0.52995
C          4.96063       -10.07706        -0.55228
C          6.11454        -9.38227        -0.45043
O          9.85331        -3.70680        -2.32319
O         -4.89871         1.13115        -2.16213
H         -4.38671         0.31845        -2.38478
O          0.12242         1.07233        -1.32297
H          0.58708         0.63924        -2.07354
O         -2.32933         1.10703         1.96864
O          7.69851         2.21761         1.02047
O         -5.23956         0.90867         1.93718
H         -4.60220         1.59847         2.25657
O         -0.78032        -6.74290        -1.10526
H         -0.07098        -6.82669        -1.78915
O          5.24602         3.58462        -1.47590
O         -3.96569         7.67046        -2.20188
O         -4.99083        -5.59565         1.82806
O         -4.16856         4.98849        -2.11919
O          0.10658        -3.50534        -0.90388
O         -7.56673        -3.41740        -2.27502
O         -8.49404         0.92832         0.55765
O         -1.45665        -9.14194        -1.52692
H         -2.25500        -8.59159        -1.68614
O          3.72134         8.97802         2.12295
O          0.80744         3.44023         2.02506
O         -6.21310         5.31531         0.88449
H         -7.01781         4.86412         1.23355
O          5.74593         0.78395         1.42991
H          6.43726         0.28577         1.92736
O          7.77280        -0.85189         1.39952
H          8.25359        -1.55475         1.89537
O          8.61002        -3.25362         1.13147
O         -0.93765        -8.61377         2.06347
H         -1.28190        -7.93830         2.69890
O          1.61203        -7.57190        -1.41875
O          4.90833         1.28768        -2.02541
H          4.15427         1.79959        -2.39646
O          1.06342         5.61242        -0.98801
O          4.90476        -1.81600         1.67491
O          4.67734         5.08494         2.13413
O         -2.82107        -6.92245         2.22320
O          3.42572        -4.43284         1.81086
O          8.00878        -0.00077        -2.00290
O         -1.10827        -4.31820         2.36600
O         -3.85535        10.24471        -1.31138
H         -4.69430        10.05377        -1.79718
O         -2.89005        -0.03176        -1.27345
H         -2.31651         0.65921        -1.67399
O          2.34458         2.50912        -1.27745
O         -1.75413         4.41316         2.01027
O          7.72280         5.53866         1.86780
H          7.15412         6.19692         2.34024
O          0.65027         0.95415         2.24483
H          1.02928         1.75666         2.68023
O          2.78848        -9.76884        -1.69847
O          5.91902        -1.12727        -1.74194
H          5.56944        -0.33618        -2.22280
O          5.96503         5.90315        -1.26599
H          5.42148         5.31639        -1.84666
O         10.08794         1.54783        -2.52912
H         10.03510         0.62829        -2.89019
O         -0.43739         7.91900        -1.58256
H         -1.07168         8.29831        -2.22656
O         10.42731         2.83069         0.81175
H          9.63764         2.65801         1.37608
O          1.10152         8.13134         2.50014
O          3.88297         2.71670         1.89726
H          4.52933         3.21663         2.44957
O          1.49991        -1.16631        -1.35397
O          0.40769        -6.42347         2.30041
H          0.34568        -5.64371         2.89881
O         10.03065        -1.25378        -2.66869
H          9.19414        -1.47894        -3.13209
O         -2.77564        -2.15794         2.33779
O         -6.17928         8.87767        -2.19879
H         -5.56137         8.53180        -2.88495
O         -1.86656         3.43315         3.06390
H         -0.96252         3.43594         3.46586
O         -0.89736         4.17635        -1.49447
H         -0.20593         4.67891        -1.98819
O         -2.79780         9.07777         1.96562
H         -2.19488         8.28883         2.02203
O         -0.93989         6.93769         1.87925
H         -0.34928         7.30208         2.61191
O         -4.49081        -0.30203         2.06609
O         -9.23053         1.01980        -3.04814
H         -9.85417         1.46155        -3.66232
O          5.98862         7.66118         2.05687
O         -8.30939         3.50524         0.36062
O         -4.10094        -7.52663        -1.12005
O         11.21922        -3.63290        -2.80828
H         11.27784        -2.68426        -3.10278
O          1.53232        -9.51365         1.66156
H          0.74650        -9.16690         2.16235
O          2.72063        -3.38191        -1.47234
H          1.98233        -3.04240        -2.03044
O          6.37631        -3.91709         2.13840
H          7.32182        -4.15115         2.27893
O         -8.40371         4.68843        -3.11182
H         -8.16572         5.54533        -3.52172
H         11.78124        -1.35631        -0.12817
H         11.84618         1.09192        -0.04446
H         10.76169         3.43078        -1.13757
H          9.68965         5.55803        -0.24741
H          8.07020         7.66774        -0.66649
H          6.98571         9.89073        -0.25370
H          4.83726        11.00523        -0.23249
H          2.37474        10.98328        -0.09787
H         -0.16036        11.03544         0.78971
H         -2.65534        10.83096         0.84358
H         -5.09386         9.98404         1.47987
H         -7.12775         8.79876         0.75482
H         -8.24592         7.49666        -1.76173
H         -9.47735         5.46761        -1.49021
H        -10.41242         3.20725        -2.29816
H        -11.96367         1.04086        -1.63860
H        -11.96722        -1.41721        -1.42812
H        -10.76603        -3.53971        -1.36275
H         -9.53932        -5.75808        -1.01390
H         -8.43383        -7.82979        -0.47849
H         -7.26610       -10.02112         0.01208
H         -5.19976       -11.28379         0.35797
H         -2.65477       -11.34855         0.18610
H         -0.17739       -11.16145         0.72781
H          2.46441       -11.26577        -0.20157
H          4.96597       -11.16498        -0.70965
H          7.08375        -9.89864        -0.51031
H          8.23644        -7.74716        -0.58885
H          9.38950        -5.68762        -0.80003
H         10.75558        -3.31820        -0.47767
