         260
 CSIRO Nanostructure Databank - Neutral Graphene Oxide Data Set
C         30.42695        31.47824         1.45110
C         30.51675        32.66537         1.80071
C         30.50853        35.79063         1.92565
C         30.46071        36.96313         1.53661
C         30.36534        40.07169         0.49425
C         30.30513        41.20583        -0.01643
C         32.57381        28.99484        -0.33304
C         31.53853        29.40870         0.21754
C         32.63067        31.61765         0.29996
C         31.27505        30.82357         0.45279
C         32.84049        32.88286         1.12587
C         31.72439        33.49091         1.95427
C         32.93497        35.82430         1.96437
C         31.69975        34.96817         2.21389
C         32.77143        37.30865         1.69470
C         31.49297        37.94442         1.31339
C         32.67125        40.17077         1.08773
C         31.43767        39.28651         1.01725
C         32.69057        41.55844         0.42357
C         31.52488        41.81053        -0.68112
C         32.73637        43.83532        -0.77664
C         31.62747        43.30459        -0.94975
C         35.38818        27.54557        -0.79820
C         35.00784        28.91186        -1.17265
C         33.84487        29.61353        -0.59126
C         34.97402        31.90259        -0.67850
C         33.85661        30.94793        -0.23713
C         35.30492        32.94822         0.45530
C         34.02491        33.74398         0.75469
C         35.46768        35.77662         1.22869
C         34.11648        35.14745         1.27832
C         35.71065        37.04473         1.65641
C         33.83442        38.12816         1.91961
C         35.34766        40.14770         1.27434
C         33.96193        39.53844         1.51476
C         35.33758        41.52921         0.67408
C         34.10420        41.95001        -0.15837
C         35.18503        44.23130        -0.30218
C         34.07170        43.47502        -0.41796
C         35.38872        45.63610        -0.44222
C         37.78828        27.56018        -0.87565
C         36.45448        26.92454        -0.85519
C         37.64785        29.00900        -1.30992
C         36.27770        29.69174        -1.45420
C         37.57611        31.87596        -1.10661
C         36.25317        31.19106        -1.20871
C         37.77637        33.11159        -0.23682
C         36.50928        33.84160         0.13106
C         37.77482        36.08402         0.34998
C         36.58324        35.14236         0.54250
C         38.12291        37.06379         1.49352
C         36.83471        37.84187         1.10110
C         37.91332        40.12653         0.84019
C         36.69318        39.36407         1.20650
C         37.82489        41.60509         0.85289
C         36.50226        42.23185         0.55419
C         37.69331        44.51288         0.28967
C         36.56449        43.54423        -0.22772
C         37.72588        45.87961        -0.47866
C         36.32748        46.44284        -0.32681
C         40.01696        24.65568         0.01402
C         39.40155        25.57770        -0.53569
C         40.15919        27.51325        -1.62655
C         39.07650        26.84485        -1.09543
C         40.17803        28.97176        -1.92858
C         38.84825        29.73904        -1.87162
C         39.88537        32.00016        -1.83254
C         38.83536        31.18500        -1.53907
C         40.15550        33.22961        -1.04113
C         38.89156        34.01761        -0.77041
C         40.37382        35.91295         0.01775
C         38.97498        35.44202        -0.32882
C         40.57738        37.24109         0.71881
C         39.33598        37.96721         1.19918
C         40.51702        40.27727         0.82879
C         39.21411        39.47090         1.05596
C         40.30528        41.64045         0.15326
C         39.08145        42.40984         0.54481
C         40.16999        44.56640        -0.14667
C         39.03868        43.83768         0.12725
C         40.15717        46.03257        -0.09853
C         38.92875        46.68427        -0.06138
C         40.09115        48.79330         0.37210
C         39.08441        48.06939         0.24876
C         42.38785        24.59860         0.29474
C         41.13330        23.96762         0.53815
C         42.59121        27.39953        -1.05118
C         41.45253        26.76637        -1.79959
C         42.58040        28.90195        -0.94694
C         41.50216        29.62787        -1.67406
C         42.97443        31.67703        -1.66260
C         41.76677        30.91354        -2.01646
C         42.87169        33.15870        -1.28995
C         41.54509        33.82877        -0.90577
C         42.84954        35.99161        -0.76267
C         41.55853        35.25855        -0.57021
C         42.87753        37.41226        -0.23617
C         41.79695        38.01110         0.36452
C         42.90103        40.26169         0.01082
C         41.58775        39.47772         0.01567
C         42.86401        41.74980        -0.19194
C         41.50805        42.39981        -0.32147
C         42.71079        44.66414        -0.75088
C         41.44909        43.88967        -0.49869
C         42.69384        46.16821        -0.58371
C         41.45573        46.75606         0.09323
C         42.72875        48.88203         0.08216
C         41.45321        48.28035         0.47959
C         43.26009        25.39957        -0.01730
C         44.86817        27.39753        -0.01604
C         43.84231        26.57214        -0.75903
C         44.93135        28.78972        -0.07258
C         43.88841        29.58604        -0.71904
C         45.43654        31.58477        -0.96766
C         44.09651        30.88908        -1.10020
C         45.30177        33.07184        -0.71065
C         44.12090        33.75116        -0.70027
C         45.34987        35.92780        -0.65489
C         44.07196        35.20679        -0.25173
C         45.37819        37.42054        -0.69223
C         44.10971        38.17258        -0.47562
C         45.40974        40.29139        -0.14598
C         44.14074        39.53115        -0.32117
C         45.41418        41.80385        -0.23527
C         44.11395        42.47952        -0.61237
C         45.30344        44.73791        -0.38009
C         44.05894        43.96315        -0.80115
C         45.27593        46.23238        -0.77286
C         43.99362        46.95562        -0.75775
C         43.78980        48.29324        -0.16629
C         46.92956        27.48226         1.15303
C         45.99429        26.81034         0.66331
C         47.20982        28.86849         1.17789
C         46.02535        29.56060         0.59321
C         47.59160        31.63128         0.46235
C         46.27177        31.02157         0.20027
C         47.84593        32.97442        -0.10938
C         46.67487        33.74792        -0.77666
C         47.80812        35.93129         0.07679
C         46.58270        35.17653        -0.25265
C         47.79753        37.40555        -0.10368
C         46.67584        38.09746        -0.42435
C         47.94768        40.31185        -0.53514
C         46.70618        39.57582        -0.31596
C         47.92435        41.73573        -1.04831
C         46.69748        42.53424        -0.50898
C         47.91107        44.77248        -0.91148
C         46.59769        44.00408        -0.85299
C         47.71689        46.16450        -0.44195
C         46.57615        46.69455        -0.74750
C         49.52829        28.99815         2.12251
C         48.36890        29.55393         1.51218
C         49.86621        31.63881         1.52319
C         48.59882        30.96799         1.17000
C         50.02726        33.04655         1.29486
C         49.08328        33.72851         0.35720
C         49.99239        36.01043         1.17368
C         49.17913        35.25780         0.12129
C         50.04495        37.52005         1.01385
C         49.09992        38.11561         0.01793
C         50.37963        40.38120         0.16351
C         49.18688        39.58757        -0.26341
C         50.45146        41.68475        -0.36689
C         49.28377        42.45271        -0.85923
C         50.30452        44.54063         0.06337
C         49.21446        44.03883        -0.75276
C         50.61745        29.52239         2.42008
C         52.02347        31.68728         2.57324
C         50.91985        30.90344         2.21198
C         52.06903        32.94064         2.41530
C         51.14675        33.78687         1.79355
C         52.14791        36.23053         2.21000
C         51.08763        35.26067         1.91068
C         52.21875        37.45151         2.03820
C         51.19793        38.38234         1.52185
C         52.30381        40.70491         1.43693
C         51.38124        39.76683         0.99613
C         52.42476        41.96118         1.67497
C         51.99225        42.87379         0.70739
C         51.23420        44.06794         0.74044
O         32.53505        35.39607         3.30389
O         31.52906        31.67083        -0.66675
O         49.06128        33.02392        -0.92360
O         45.40349        36.60038        -1.92521
O         37.09623        37.30772        -0.30029
O         43.17925        32.74762        -2.64596
O         51.72943        42.25627        -0.58967
O         46.91741        35.39813         1.14834
O         46.23023        42.34942         0.85004
O         40.58291        41.75431        -1.27354
O         49.62125        38.53976        -1.27545
O         41.64261        47.25410         1.46267
O         41.86082        44.26944        -1.86300
O         45.51495        30.67841         1.39452
O         46.10389        39.87398         1.07459
O         42.10145        28.07199         0.15638
O         43.06237        46.77832        -1.86592
O         40.69050        36.00933         1.48177
O         33.73167        34.83490        -0.13777
O         47.15937        44.40042        -2.11296
O         43.10754        41.18171         1.12396
O         49.82034        35.61523         2.55438
O         39.41675        29.32052        -3.13338
O         39.45565        38.76708         2.41176
O         46.92297        33.82744        -2.15711
O         49.97884        38.23876         2.28978
O         36.16642        39.93488         2.45840
O         40.83992        31.62210        -2.78176
O         37.89531        28.63923         0.09634
O         32.78856        32.72444         2.58556
O         33.15339        40.33346         2.46958
O         49.62876        43.36427        -1.95504
O         41.54381        25.73873        -2.44292
O         38.68933        35.08432        -1.72083
O         44.17570        43.07182        -1.94088
O         38.64871        42.24711         1.93531
O         34.92709        37.62638         2.63281
O         35.40766        29.24553        -2.52873
O         36.76287        31.99933        -2.32662
O         40.91124        32.99154         0.17975
O         38.32354        32.60289         1.01005
H         37.57824        32.21740         1.53118
O         41.12310        39.28689        -1.34812
H         40.96134        40.16897        -1.77282
O         46.17141        31.35460        -2.17923
H         46.52737        32.24221        -2.50046
O         43.98342        35.24468         1.18527
H         44.86532        35.05477         1.57552
O         37.47192        44.78534         1.67620
H         37.75823        43.99550         2.19478
O         31.78162        41.11052        -1.85333
H         31.12567        41.35436        -2.53698
O         35.64134        32.15905         1.62747
H         35.36784        32.63852         2.43920
O         41.02346        40.63183         2.11618
H         40.74040        39.94929         2.76765
O         36.87916        43.12148        -1.57501
H         37.18373        43.91782        -2.07892
O         42.96043        36.08649        -2.20968
H         42.34507        36.77838        -2.53247
O         44.40121        26.12029        -1.98982
H         45.25524        25.67547        -1.80857
O         37.91455        45.58291        -1.87281
H         37.93863        46.42314        -2.37745
O         38.19297        36.51866         2.78004
H         38.67503        37.15280         3.35649
O         32.40598        42.50526         1.45497
H         32.64807        42.10970         2.32361
O         41.04913        22.83595         1.22068
H         40.12396        22.53055         1.30561
O         34.30640        41.25724        -1.40009
H         35.09662        41.64465        -1.83953
O         49.84310        35.47880        -1.12669
H         49.51363        34.79705        -1.76017
O         45.25666        44.73260         1.05917
H         46.05132        45.19037         1.40857
O         34.38824        32.62668        -1.76078
H         35.08091        32.78555        -2.44377
O         47.69489        41.63121        -2.47331
H         48.14446        42.39951        -2.90190
