         598
 CSIRO Nanostructure Databank - Neutral Graphene Oxide Data Set
C         23.04285        69.98301        -0.25503
C         23.06531        71.39057        -0.36897
C         21.87388        72.15898        -0.30736
C         23.12755        74.21415        -0.60062
C         21.91634        73.54955        -0.42322
C         25.34501        65.64206        -0.15480
C         25.37915        67.04651        -0.29854
C         24.19724        67.81531        -0.20868
C         25.49695        69.88527        -0.52760
C         24.22881        69.21870        -0.33451
C         25.52918        71.31669        -0.60529
C         24.32177        72.06238        -0.54539
C         25.58791        74.14272        -0.85327
C         24.34981        73.48962        -0.66275
C         27.73323        61.31713         0.27908
C         27.69683        62.73867         0.15618
C         26.50576        63.47184         0.01859
C         27.78230        65.54573        -0.45169
C         26.52884        64.87994        -0.17711
C         27.80770        66.93611        -0.71885
C         26.63459        67.70495        -0.57109
C         27.96207        69.82021        -0.76923
C         26.68613        69.14065        -0.65510
C         28.00480        71.26190        -0.74847
C         26.77646        71.98970        -0.74057
C         28.03503        74.05806        -1.13859
C         26.79333        73.41608        -0.88928
C         30.23372        57.05381         0.71159
C         30.12338        58.44167         0.79421
C         28.97451        59.16241         0.41417
C         30.15827        61.30975         0.69047
C         28.93175        60.59192         0.47577
C         30.16120        62.76786         0.53769
C         28.94116        63.46360         0.09832
C         30.28205        65.40462        -0.73338
C         28.99085        64.78585        -0.32458
C         30.30060        66.82228        -1.24382
C         29.00514        67.62358        -1.35661
C         30.40393        69.72809        -0.95248
C         29.14121        69.07470        -0.95285
C         30.44345        71.14735        -0.75319
C         29.25269        71.95009        -0.79807
C         30.41935        74.12214        -1.54299
C         29.25746        73.38250        -1.08706
C         32.72570        52.80650         0.54118
C         32.68138        54.21292         0.89315
C         31.47876        54.94200         0.79984
C         32.55721        56.98368         1.65311
C         31.41631        56.32486         1.08730
C         32.49244        58.46563         1.81454
C         31.17398        59.21160         1.55940
C         32.60313        61.24506         0.86294
C         31.35967        60.62491         1.01880
C         32.68095        62.59802         0.29479
C         31.48514        63.47823         0.40043
C         32.76732        65.40977        -0.46071
C         31.55678        64.80001        -0.28115
C         32.88708        66.76752        -1.04111
C         31.62067        67.55235        -1.30779
C         32.88154        69.69718        -1.09061
C         31.64972        69.02455        -1.09391
C         32.93250        71.11539        -0.91917
C         31.72095        71.72861        -0.57611
C         32.96970        74.09056        -1.71894
C         31.71163        73.80834        -1.14694
C         35.29417        48.57555        -0.22068
C         35.19272        49.96381         0.04882
C         33.98318        50.66436         0.19826
C         35.16934        52.82435         0.64589
C         33.90452        52.07701         0.45307
C         35.14742        54.22908         1.15953
C         33.84648        54.91394         1.32491
C         35.03658        56.95380         2.16404
C         33.78059        56.26712         1.74563
C         35.09228        58.47742         1.99730
C         33.80881        59.20578         1.72019
C         35.22024        61.10603         0.60938
C         33.86649        60.48009         0.94229
C         35.26396        62.58471         0.48308
C         34.02000        63.29840         0.14921
C         35.18934        65.57200         0.56858
C         33.95747        64.79966         0.21386
C         35.34991        66.94283        -0.08539
C         34.20121        67.49708        -0.88783
C         35.45792        69.77097        -1.12131
C         34.17685        68.97712        -1.22730
C         35.39937        71.25652        -0.99178
C         34.15575        71.90812        -1.05786
C         35.37341        73.89809        -1.82163
C         34.13491        73.31622        -1.45038
C         37.79222        44.36694        -0.91703
C         37.77041        45.76705        -0.69073
C         36.56403        46.47992        -0.57194
C         37.79009        48.54560        -0.07573
C         36.52718        47.87709        -0.30847
C         37.78563        49.99991         0.16456
C         36.46857        50.71778         0.16852
C         37.67917        52.69795         1.27693
C         36.40431        52.02129         0.89632
C         37.68668        54.14296         1.57339
C         36.37390        54.75827         1.83771
C         37.62766        56.94734         2.18635
C         36.34809        56.21473         2.20088
C         37.58287        58.43363         2.24927
C         36.36642        59.13014         1.78213
C         37.70533        61.19891         1.30355
C         36.52801        60.33193         0.87981
C         37.71672        62.63287         0.91009
C         36.41463        63.31760         0.71774
C         37.53149        65.39008         1.37285
C         36.40779        64.74613         0.85435
C         37.54380        67.51257         0.97204
C         36.50203        67.86761         0.16749
C         37.84120        69.91928        -0.21814
C         36.76541        69.02059        -0.79957
C         37.79264        71.33849        -0.41376
C         36.62835        71.99880        -0.92153
C         37.80999        74.00885        -1.94349
C         36.61765        73.34137        -1.48693
C         40.36849        40.18487        -1.29366
C         40.34096        41.57605        -1.20841
C         39.08810        42.26475        -1.13085
C         40.28094        44.42646        -1.27931
C         38.99948        43.65825        -1.07115
C         40.24244        45.85353        -0.78110
C         39.04315        46.47917        -0.54990
C         40.25358        48.54070         0.18374
C         39.00616        47.87957        -0.15216
C         40.20029        49.81423         1.00075
C         38.97531        50.64800         0.73861
C         40.16538        52.73845         1.24634
C         38.96413        51.99690         1.06794
C         40.13612        54.15816         1.50882
C         38.86170        54.83732         1.79158
C         40.11690        57.01598         2.22366
C         38.82859        56.27201         2.08360
C         40.15837        58.48510         2.13321
C         38.86679        59.20065         2.21696
C         40.09283        61.36172         2.04567
C         38.83065        60.61834         1.78389
C         40.11816        62.83099         1.83243
C         38.94115        63.45202         1.17667
C         40.04388        65.70720         1.15039
C         38.87331        64.93091         1.28129
C         40.05603        67.14243         0.91834
C         38.91216        67.96284         0.78728
C         40.18917        70.12156         0.75584
C         38.95925        69.33861         0.36901
C         40.23852        71.49387         0.11727
C         38.97043        72.06110        -0.04944
C         40.35684        73.91889        -1.69068
C         39.02832        73.83607        -1.27164
C         42.81420        35.86348        -1.72608
C         42.40016        37.14725        -2.03547
C         41.44672        38.03186        -1.45589
C         42.82479        40.19580        -1.57919
C         41.56727        39.44284        -1.50048
C         42.85135        41.54106        -1.09966
C         41.59421        42.28895        -0.98099
C         42.45630        44.45265        -0.07410
C         41.47166        43.66498        -0.74535
C         42.66734        45.79582        -0.19926
C         41.55070        46.62801        -0.80204
C         42.72105        48.57660         0.29477
C         41.46755        47.93317        -0.04738
C         42.67369        49.97566         0.66547
C         41.47316        50.61895         0.91404
C         42.59762        52.79709         1.01457
C         41.42561        52.04990         1.10368
C         42.49997        54.24227         0.80491
C         41.30426        54.89584         1.36102
C         42.56270        57.11412         1.38703
C         41.40939        56.29816         1.78536
C         42.57121        58.46710         1.65970
C         41.35593        59.16347         2.00460
C         42.62032        61.44704         2.04775
C         41.37653        60.64886         1.68894
C         42.59806        62.84543         1.84616
C         41.38508        63.54140         1.65711
C         42.65954        65.58837         0.87266
C         41.32744        64.91024         1.09845
C         42.65267        67.04694         0.53713
C         41.33372        67.81656         0.50302
C         42.59753        69.95731         0.25836
C         41.42028        69.29983         0.52281
C         42.64937        71.41123         0.14252
C         41.47127        72.19087        -0.12042
C         42.67932        74.09850        -1.40240
C         41.51222        73.43070        -0.96616
C         45.33972        33.21321        -2.50343
C         44.14798        33.87670        -2.21171
C         45.25844        36.04009        -2.48375
C         44.05697        35.28713        -2.20934
C         45.33137        37.47581        -2.41197
C         44.16830        38.27122        -2.47713
C         45.33962        40.23589        -1.79898
C         44.07790        39.56708        -1.92615
C         45.34515        41.60520        -1.43049
C         44.14068        42.18549        -0.97240
C         45.31657        44.35583        -0.53114
C         44.31565        43.43289        -0.28036
C         45.24777        45.73622        -0.13955
C         43.94952        46.39570         0.36636
C         45.19906        48.62183         0.22813
C         43.94792        47.90632         0.23849
C         45.21064        50.03873         0.50585
C         43.94487        50.66550         0.92210
C         45.15934        53.03488         1.04532
C         43.90684        52.17223         1.11260
C         45.04287        54.32949         0.23699
C         43.70057        55.02414         0.39121
C         44.92303        57.28059         0.36408
C         43.66495        56.51105         0.59241
C         44.98136        58.72109         0.80646
C         43.84993        59.24234         1.64562
C         45.18439        61.45382         1.83752
C         43.89970        60.71096         2.02452
C         45.19987        62.90589         2.11841
C         43.85269        63.64582         1.96722
C         45.10844        65.72453         1.38141
C         43.90992        65.01743         1.44246
C         45.12564        67.13217         0.95696
C         43.91610        67.78329         0.64530
C         45.15743        69.89318         0.00902
C         43.85793        69.17034         0.13581
C         45.14907        71.36986        -0.03631
C         43.95584        72.01117         0.16072
C         45.20572        74.24967        -1.43345
C         43.98994        73.97527        -0.85702
C         46.51636        33.93521        -2.68997
C         47.74473        36.06831        -2.59805
C         46.49970        35.34505        -2.62820
C         47.80866        37.41859        -2.34524
C         46.57932        38.16034        -2.25310
C         47.80459        40.33998        -2.16236
C         46.55725        39.55939        -2.06935
C         47.77148        41.76292        -1.77397
C         46.58146        42.36540        -1.43483
C         47.75587        44.52418        -0.82393
C         46.49585        43.87902        -1.34152
C         47.71582        45.82887        -0.41114
C         46.42414        46.50263        -0.20558
C         47.65560        48.66863        -0.22514
C         46.39892        47.92242        -0.04644
C         47.63082        50.15325         0.10364
C         46.37592        50.80245         0.53861
C         47.57957        52.96739         0.65120
C         46.40229        52.23956         0.71975
C         47.63717        54.37490         0.15058
C         46.30262        55.11994        -0.05491
C         47.29426        57.48509        -0.15465
C         46.20217        56.61510         0.02904
C         47.50419        58.74539         0.43176
C         46.27295        59.48587         0.77519
C         47.64366        61.45499         1.53432
C         46.32059        60.81376         1.41967
C         47.68424        62.94877         1.81903
C         46.41470        63.67874         1.83843
C         47.63784        65.78410         1.54892
C         46.38020        65.05389         1.61781
C         47.61254        67.21309         1.30077
C         46.37395        67.83031         0.93128
C         47.63112        70.08122         0.55877
C         46.35546        69.28085         0.64288
C         47.67511        71.42019        -0.08486
C         46.40254        72.04104        -0.48693
C         47.73681        74.14141        -1.03423
C         46.44148        73.47071        -1.09329
C         49.15182        38.08050        -2.08077
C         50.33056        40.34271        -1.73819
C         49.13492        39.60329        -2.17067
C         50.33669        41.72074        -1.58485
C         49.06395        42.49387        -1.70171
C         50.24267        44.36053        -0.30569
C         49.04832        43.86982        -1.11207
C         50.24146        45.87287        -0.25112
C         48.97111        46.56536        -0.23326
C         50.22063        48.68120        -0.08037
C         48.94690        47.94443        -0.16172
C         50.18847        50.13252         0.36937
C         48.86965        50.75779         0.65219
C         50.13013        52.94862         0.99505
C         48.84120        52.25359         0.91752
C         50.20247        54.30335         0.75362
C         49.04480        55.00320         0.14953
C         50.20334        57.21001         0.58689
C         49.23389        56.44560        -0.02797
C         50.14938        58.67692         0.60210
C         48.85253        59.41193         0.42062
C         50.14743        61.54304         1.25055
C         48.86963        60.86436         0.91244
C         50.14779        62.96931         1.43527
C         48.93203        63.67310         1.55307
C         50.14347        65.79697         1.77305
C         48.86676        65.09103         1.59277
C         50.08780        67.33900         1.66489
C         48.82773        67.94231         1.25683
C         50.14854        69.97161         0.29585
C         48.86964        69.25879         0.57562
C         50.14357        71.40525        -0.07192
C         48.88724        72.05658        -0.34431
C         50.18854        74.09308        -0.92002
C         48.91655        73.44756        -0.78695
C         51.53610        42.43474        -1.30492
C         52.71164        44.49242        -0.60502
C         51.55497        43.77446        -0.83433
C         52.67101        45.69713         0.30845
C         51.43454        46.52901         0.02302
C         52.66838        48.62710         0.46381
C         51.47413        47.94432         0.16066
C         52.68132        50.01998         0.81787
C         51.38684        50.69134         1.04786
C         52.61420        52.92307         1.35835
C         51.34252        52.20776         1.35490
C         52.63096        54.31712         1.23737
C         51.40921        55.04075         0.98953
C         52.59620        57.16929         1.18091
C         51.40061        56.46569         0.98042
C         52.51804        58.62845         1.37961
C         51.29315        59.37744         1.00420
C         52.61320        61.52775         1.27641
C         51.33823        60.81561         1.19158
C         52.62928        62.97476         1.30452
C         51.41052        63.69149         1.40249
C         52.65556        65.83917         1.49151
C         51.41718        65.10431         1.54924
C         52.65584        67.26608         1.40691
C         51.39647        68.04464         1.45545
C         52.66504        70.01669         0.38111
C         51.40832        69.41767         0.86044
C         52.61039        71.29630        -0.15584
C         51.36508        72.03138        -0.29617
C         52.64837        74.05873        -0.99954
C         51.39330        73.41660        -0.73513
C         53.93341        46.51570         0.32580
C         55.13517        48.64398         0.67913
C         53.92872        47.89496         0.49106
C         55.13490        50.02274         0.95459
C         53.86309        50.69644         1.11969
C         55.16921        52.90253         1.44951
C         53.83983        52.12360         1.52056
C         55.09139        54.34018         1.16425
C         53.88447        55.04385         1.18757
C         55.05736        57.23520         1.16350
C         53.85052        56.49171         1.16679
C         55.09577        58.64025         1.38145
C         53.82454        59.38876         1.53870
C         55.13557        61.50798         1.01961
C         53.81542        60.83259         1.27223
C         55.10154        62.99136         1.27867
C         53.89722        63.68104         1.34670
C         55.12508        65.86233         1.45434
C         53.89590        65.13565         1.41885
C         55.09213        67.27227         1.41429
C         53.86568        67.96996         1.23630
C         55.09619        70.03073         0.59034
C         53.89524        69.35628         0.75225
C         55.15227        71.27017        -0.19577
C         53.85069        71.93493        -0.60100
C         55.10559        73.95419        -1.30057
C         53.85980        73.37953        -0.93373
C         56.35719        50.76417         0.99115
C         57.60610        52.89637         0.96059
C         56.40855        52.16216         1.09873
C         57.62242        54.31519         0.91265
C         56.32559        55.01641         0.77715
C         57.57715        57.25081         1.05877
C         56.31092        56.56041         0.82734
C         57.55979        58.63450         1.34420
C         56.30794        59.33100         1.44593
C         57.58530        61.52536         1.73654
C         56.25644        60.80043         1.81097
C         57.59010        62.90359         1.76237
C         56.43076        63.69627         1.17647
C         57.59802        65.82764         1.71859
C         56.40788        65.16452         1.54714
C         57.64298        67.32021         1.74958
C         56.33388        68.05402         1.59518
C         57.66971        70.08426         0.65437
C         56.35495        69.47825         1.12915
C         57.63552        71.30787        -0.17391
C         56.38542        72.15689        -0.09278
C         57.50112        73.69309        -1.74077
C         56.32671        73.28380        -1.10325
C         58.79336        55.07225         0.90146
C         60.00457        57.21489         1.11533
C         58.79827        56.50665         0.99530
C         60.01997        58.61650         1.32596
C         58.79628        59.34327         1.48485
C         60.06451        61.41482         1.78113
C         58.82180        60.75654         1.73368
C         60.11748        62.82872         2.19452
C         58.80925        63.61281         2.19604
C         60.16708        65.80375         1.91443
C         58.82536        65.14036         2.31697
C         60.15499        67.24490         1.38455
C         58.87834        67.97935         1.23575
C         60.03870        69.72002        -0.09055
C         58.87204        69.21786         0.62206
C         59.96453        70.92208        -0.84802
C         58.74146        71.71147        -0.87986
C         59.83711        73.35441        -2.37432
C         58.70504        72.94533        -1.66454
C         61.25188        59.31383         1.36069
C         62.52272        61.40900         1.48880
C         61.28425        60.69578         1.56331
C         62.59265        62.78639         1.62184
C         61.45233        63.58335         2.21697
C         62.52993        65.61488         1.18552
C         61.37128        64.99458         1.63583
C         62.52244        66.98991         0.73780
C         61.34974        67.74150         0.68216
C         62.37902        69.46780        -0.77564
C         61.26284        68.99117        -0.04133
C         62.26387        70.59235        -1.61232
C         61.07762        71.35677        -1.61517
C         62.16417        73.04456        -3.08271
C         61.03407        72.59288        -2.38451
C         63.77354        63.47041         1.27372
C         64.97213        65.46170         0.60152
C         63.78648        64.86086         1.06010
C         65.02518        66.80851         0.17563
C         63.79564        67.60734         0.32544
C         64.85473        69.22835        -1.34682
C         63.70694        68.88696        -0.52460
C         64.70741        70.23101        -2.39622
C         63.36334        70.95625        -2.52788
C         64.52468        72.75175        -3.77999
C         63.37055        72.29439        -3.15030
C         66.16690        67.39203        -0.37777
C         67.25439        69.15292        -1.78278
C         66.11420        68.62020        -1.12390
C         67.17812        70.32010        -2.59556
C         65.90931        70.89236        -2.90039
C         66.97687        72.65159        -4.19624
C         65.79240        72.08112        -3.66365
C         68.33671        70.92454        -3.15619
C         68.22015        72.06265        -3.95168
O         39.99545        62.24094         3.19520
O         34.97838        57.80981         3.32001
O         43.06884        37.73700        -3.13642
O         60.44847        66.93761         2.80138
O         45.27384        59.56872        -0.35050
O         43.87631        57.18324        -0.69906
O         34.12529        65.39547         1.56137
O         49.52063        69.14148        -0.75572
O         48.55824        40.10339        -3.42190
O         48.83240        60.55605        -0.51632
O         43.99752        51.26303         2.27293
O         57.12640        70.34345         2.01722
O         44.59713        69.24791        -1.16540
O         32.41826        67.01587        -2.40527
O         47.63716        49.71425        -1.27569
O         50.13310        44.00841         1.05478
O         45.55203        54.38901        -1.10793
O         36.82302        51.95870         2.28198
O         34.91980        69.34162        -2.42672
O         47.86649        61.94022         2.88808
O         30.83132        63.47238         1.68916
O         59.35392        63.02114         3.42486
O         35.26458        66.76571        -1.56324
O         35.40892        53.94212        -0.27227
O         46.85382        70.06584         1.79803
O         42.04216        64.83224        -0.21120
O         51.43490        69.24383         2.31890
O         50.38948        49.81719        -1.02568
O         48.36123        57.01305        -0.92935
O         49.22297        43.68952        -2.56545
O         44.46817        63.41533         3.27204
O         37.27890        50.75646        -1.03801
O         30.27342        65.70438        -2.18338
O         48.49339        54.35419        -1.04291
O         38.86013        73.44025         0.07423
O         53.03036        59.00830         2.71256
O         46.43214        72.26558        -1.95401
O         54.60463        52.46853         2.72178
O         44.02104        73.38497         0.41827
O         51.20103        51.17399         2.39399
O         64.03351        68.90860         0.92026
O         33.33099        62.74376        -1.01131
O         63.71308        69.86875        -3.43976
O         44.13955        59.63298         3.02662
O         54.63345        71.12031        -1.55215
O         38.68939        62.92565        -0.17039
O         41.94134        67.29400        -0.72151
O         56.23158        55.81353        -0.44146
O         48.68436        51.23800         1.99361
O         34.46383        60.35827        -0.40605
O         42.75189        54.61228        -0.64092
O         36.23247        55.16047         3.22784
O         37.29619        66.60961         2.00432
O         50.09088        66.66661         2.95467
O         56.96832        67.90365         2.91150
O         43.37462        43.72097         0.71625
O         31.77906        72.99002         0.00687
O         33.05909        59.18935         2.96943
O         38.16800        58.99948         3.50358
O         41.03170        56.45523         3.20114
O         41.85296        46.92852        -2.19309
H         41.65493        46.11076        -2.71094
O         55.84484        60.88092         3.20112
H         56.58019        60.56357         3.76564
O         41.34382        60.68451         0.21634
H         42.11740        60.19494        -0.13853
O         28.68728        67.67585        -2.78131
H         28.98801        66.82041        -3.16708
O         52.50066        45.15753         1.65892
H         51.60783        44.67979         1.65411
O         45.34852        53.53702         2.40457
H         45.21466        52.77204         3.01112
O         36.95327        59.77244        -0.40615
H         36.15512        59.71903        -0.98289
O         40.07228        70.35500         2.20900
H         40.78680        70.97542         2.46736
O         43.94231        46.16085         1.81326
H         43.87903        45.18425         1.93645
O         56.75748        63.73131        -0.26949
H         56.54317        62.82912        -0.62127
O         37.31917        68.50193        -2.02250
H         36.58415        68.03608        -2.48940
O         58.65174        65.39632         3.72871
H         58.93172        66.32669         3.89452
O         40.48612        44.52022        -2.74290
H         39.63647        44.81289        -3.13752
O         30.55018        59.37706         2.86595
H         31.26449        59.62924         3.49512
O         56.35681        72.79790         1.21174
H         56.61325        72.11107         1.87792
O         40.07978        49.39392         2.40963
H         40.94726        49.02763         2.68572
O         50.14305        37.57929        -2.98507
H         49.93641        37.93501        -3.87480
O         55.47503        61.31094        -0.40647
H         54.69147        61.56982        -0.93773
O         61.80656        63.78514         3.60844
H         60.95720        63.87079         4.10519
O         46.35480        44.34841        -2.71913
H         47.22629        44.20223        -3.15702
H         23.14848        75.30946        -0.69296
H         25.61168        75.23608        -0.97254
H         28.03142        75.13350        -1.37025
H         30.24997        74.93479        -2.26509
H         33.07149        74.94912        -2.39996
H         35.35717        74.89646        -2.28358
H         37.74456        74.63731        -2.84420
H         40.55914        74.45897        -2.62864
H         42.56286        74.78879        -2.25286
H         45.23369        74.77374        -2.40156
H         47.77590        75.22816        -1.20146
H         50.20865        75.14117        -1.25474
H         52.64054        75.12084        -1.28775
H         55.10789        74.92468        -1.82125
H         57.47234        74.57117        -2.40438
H         59.79846        74.29000        -2.95185
H         62.11533        74.01404        -3.60070
H         64.50025        73.72432        -4.29417
H         66.91141        73.57145        -4.79430
H         22.08161        69.46835        -0.10755
H         20.91115        71.64638        -0.16920
H         20.98205        74.12631        -0.37515
H         24.38135        65.14206         0.02143
H         23.23639        67.30939        -0.03309
H         26.78701        60.76190         0.19607
H         25.53618        62.95921         0.10076
H         29.40899        56.48195         0.25861
H         28.09127        58.61969         0.04456
H         31.76570        52.30437         0.34661
H         30.57961        54.44364         0.40746
H         34.36556        47.99955        -0.35633
H         33.03843        50.10744         0.09980
H         36.84069        43.81304        -0.91894
H         35.61414        45.93954        -0.70349
H         39.41474        39.63540        -1.28950
H         38.16704        41.66283        -1.08917
H         42.21310        35.25272        -1.03548
H         40.53852        37.61575        -0.99167
H         45.35860        32.11501        -2.53450
H         43.24426        33.28997        -1.99234
H         47.47142        33.41198        -2.83989
H         48.68025        35.49578        -2.68753
H         49.48628        37.79327        -1.04620
H         51.25256        39.77091        -1.55162
H         52.48326        41.87124        -1.32156
H         53.67388        44.14585        -1.01726
H         54.89360        45.97731         0.36073
H         56.09793        48.11539         0.60922
H         57.29405        50.21846         0.80265
H         58.55817        52.35173         0.87330
H         59.76340        54.55395         0.93240
H         60.96120        56.67672         1.04543
H         62.19148        58.76188         1.21539
H         63.42413        60.85474         1.18592
H         64.67116        62.88643         1.01875
H         65.87784        64.84231         0.52117
H         67.10619        66.81979        -0.38925
H         68.23267        68.67563        -1.62655
H         69.32486        70.48768        -2.95479
H         69.12487        72.51786        -4.37871
