         429
 CSIRO Nanostructure Databank - Neutral Graphene Oxide Data Set
C          1.11036         3.47641        -0.50896
C         -0.04384         4.15115        -0.82134
C          1.03653         6.34212        -0.65199
C         -0.07438         5.57435        -0.93504
C          1.05870         7.79165        -0.81531
C         -0.09368         8.55447        -0.82111
C          1.08185        10.71223        -1.02298
C         -0.08037         9.97732        -0.88760
C          1.12663        12.16733        -0.90431
C         -0.05562        12.92922        -0.97338
C          1.13339        14.98620        -0.46926
C         -0.05847        14.30600        -0.75936
C          1.14415        16.42030         0.06014
C         -0.08626        17.23441        -0.25283
C          1.20686        19.34760        -0.73143
C         -0.05545        18.54541        -0.52046
C          1.23855        20.66615         0.01857
C          0.05144        21.43070         0.23699
C          1.26367        23.20260         1.45497
C          0.05685        22.67563         0.81572
C          1.38815        24.59620         1.96360
C          0.24126        25.46790         2.09259
C          1.38947        27.71879         2.05411
C          0.23610        26.83989         2.14945
C          1.29822        29.06750         1.51971
C          0.05713        29.70058         1.26356
C          1.16048        31.78800         0.60259
C         -0.00577        31.01771         0.84189
C          1.07800        33.19036         0.22596
C         -0.09707        33.90376         0.14919
C          1.03099        36.04461        -0.26058
C         -0.12190        35.29633        -0.20451
C          1.06191        37.44590        -0.57855
C          3.54959         3.52820        -0.12484
C          2.33460         4.18277        -0.26157
C          3.59504         6.41702        -0.21397
C          2.26335         5.65648        -0.19958
C          3.62686         7.82134        -0.71902
C          2.34666         8.46447        -1.10079
C          3.63652        10.74792        -1.18516
C          2.34161         9.99444        -1.27993
C          3.64118        12.14859        -0.70838
C          2.36160        12.84735        -0.68061
C          3.58278        14.93290        -0.06886
C          2.33311        14.24594        -0.46413
C          3.63988        16.38093        -0.42623
C          2.40788        17.17387        -0.31205
C          3.73288        19.24539        -0.45342
C          2.45838        18.53165        -0.46907
C          3.71115        20.63326        -0.14974
C          2.49294        21.24760         0.25411
C          3.84763        23.18216         1.18325
C          2.56895        22.45738         1.08967
C          3.87746        24.36766         1.96468
C          2.64845        24.98789         2.39525
C          3.85469        27.94466         2.10894
C          2.64742        27.26666         2.45512
C          3.77025        29.20498         1.46677
C          2.48961        29.81496         1.25775
C          3.66018        31.88684         0.54852
C          2.42533        31.15880         0.77802
C          3.62794        33.24864         0.19945
C          2.33765        33.90757        -0.22267
C          3.56710        36.10241        -0.24974
C          2.31440        35.37822         0.18186
C          3.52807        37.49001        -0.54427
C          2.23773        38.13706        -0.68797
C          6.06171         3.51802        -0.09999
C          4.80192         4.22733        -0.17752
C          6.05472         6.31935        -0.65010
C          4.81087         5.61356        -0.32418
C          6.04192         7.77382        -0.20417
C          4.81494         8.49169        -0.73842
C          6.12794        10.66265        -0.56481
C          4.91836         9.94364        -1.00962
C          6.11861        12.05313        -0.44475
C          4.85230        12.76253        -0.39378
C          6.19913        14.92555         0.24184
C          4.86766        14.17279         0.06664
C          6.21431        16.35875        -0.24895
C          4.97579        17.08853        -0.54252
C          6.21881        19.23071        -0.26412
C          4.96542        18.55162        -0.45112
C          6.24207        20.63365        -0.10829
C          4.97884        21.44348        -0.25494
C          6.26236        23.36195         0.75709
C          5.02137        22.67646         0.61389
C          6.27567        24.62813         1.41102
C          5.12645        25.02536         2.08994
C          6.25384        27.79712         1.56407
C          5.12608        27.30820         2.20969
C          6.21225        29.15671         1.13454
C          4.98166        29.86155         1.10221
C          6.13333        31.92417         0.42933
C          4.92714        31.23210         0.68687
C          6.08036        33.33337         0.17525
C          4.82360        33.99474         0.08764
C          6.01721        36.15326        -0.25521
C          4.79612        35.41983        -0.16992
C          5.98927        37.56580        -0.56578
C          4.73047        38.19428        -0.73945
C          8.49909         3.36525         0.10066
C          7.29241         4.10900        -0.28711
C          8.59776         6.34354        -0.53335
C          7.35266         5.54079        -0.70689
C          8.54199         7.77974        -0.35302
C          7.33629         8.50164        -0.42697
C          8.58953        10.61456        -0.49710
C          7.35350         9.91671        -0.45455
C          8.61717        12.05650        -0.44134
C          7.38074        12.77356        -0.33616
C          8.65788        14.88129        -0.21066
C          7.42447        14.16938        -0.20193
C          8.67338        16.31427        -0.15734
C          7.42661        17.04732        -0.21661
C          8.68663        19.18330        -0.17222
C          7.44303        18.48885        -0.23273
C          8.68376        20.60283        -0.10207
C          7.47382        21.32199         0.02418
C          8.74441        23.39163         0.56890
C          7.50088        22.73193         0.37631
C          8.79536        24.79491         1.06818
C          7.51657        25.47251         1.46203
C          8.75971        27.71638         1.39615
C          7.44293        26.96389         1.08949
C          8.69335        29.15441         0.89988
C          7.44932        29.83328         0.81715
C          8.60918        31.92261         0.30848
C          7.39330        31.22361         0.50492
C          8.54741        33.35583        -0.06431
C          7.27570        34.09298         0.05312
C          8.48870        36.32176         0.19909
C          7.25345        35.48755        -0.07427
C          8.46746        37.70299        -0.42876
C          7.20174        38.27431        -0.74588
C         11.08993         3.06201        -0.05039
C          9.73339         3.61231        -0.40788
C         11.08712         6.31043        -0.37412
C          9.82800         5.76986        -0.79897
C         11.02953         7.76709         0.04386
C          9.77579         8.48855        -0.36535
C         11.04010        10.57067        -0.99716
C          9.79350         9.86798        -0.52426
C         11.11204        11.95993        -0.37036
C          9.84934        12.74627        -0.34486
C         11.14213        14.88222        -0.15848
C          9.89538        14.15756        -0.25775
C         11.13990        16.26619        -0.08284
C          9.90944        17.01854        -0.13564
C         11.18065        19.17145        -0.09550
C          9.92324        18.44686        -0.13722
C         11.19625        20.59771        -0.10883
C          9.93814        21.37595        -0.37687
C         11.19050        23.46710         0.23668
C          9.94993        22.76487         0.21117
C         11.21794        24.89038         0.43488
C         10.00647        25.60282         0.74754
C         11.18890        27.75991         0.68799
C          9.98903        26.99350         0.86882
C         11.18245        29.15950         0.61469
C          9.89532        29.84947         0.64515
C         11.10094        32.00471         0.34993
C          9.83240        31.24712         0.38735
C         11.08000        33.47520         0.14016
C          9.79931        34.14360        -0.20610
C         10.96539        36.30925        -0.11599
C          9.79127        35.61772        -0.09601
C         10.92568        37.81039         0.07885
C          9.65747        38.39601        -0.50201
C         13.45275         3.47786         0.36265
C         12.26815         4.09254         0.01873
C         13.43736         6.29447         0.47124
C         12.22172         5.55065        -0.10570
C         13.52904         7.77805         0.06237
C         12.29031         8.50163        -0.30481
C         13.58474        10.51807        -0.99953
C         12.31400         9.79996        -0.68889
C         13.60400        12.01238        -0.93526
C         12.42428        12.66787        -0.25731
C         13.66983        14.88152        -0.49603
C         12.46410        14.15886         0.10931
C         13.63381        16.27781        -0.40986
C         12.44311        16.97998         0.22198
C         13.62719        19.18632        -0.13744
C         12.40407        18.46553        -0.05777
C         13.63904        20.61102        -0.09927
C         12.40528        21.31899        -0.04582
C         13.65434        23.46582        -0.01961
C         12.41316        22.76244         0.03662
C         13.67068        24.90054         0.10854
C         12.45433        25.57936         0.37383
C         13.75259        27.79534         0.33560
C         12.46760        27.02403         0.64632
C         13.65977        29.22491         0.01802
C         12.39735        29.90339         0.26985
C         13.45968        32.01529        -0.60520
C         12.35031        31.27681         0.10090
C         13.49994        33.50854        -0.37537
C         12.30977        34.20942        -0.22054
C         13.44167        36.35519        -0.40127
C         12.24994        35.62857        -0.25626
C         13.40428        37.81439        -0.45458
C         12.19818        38.49066        -0.34643
C         15.92190         3.44132         0.64598
C         14.72851         4.14679         0.46215
C         15.97059         6.22760         0.23331
C         14.75539         5.56614         0.29450
C         16.11801         7.63671        -0.29677
C         14.82428         8.45243        -0.25734
C         16.04770        10.59709        -0.23891
C         14.94100         9.79759        -0.96527
C         16.08832        11.99880        -0.35489
C         14.96277        12.71361        -1.10052
C         16.14173        14.88440        -0.86270
C         14.86893        14.19185        -0.80627
C         16.16922        16.36843        -0.83128
C         14.82413        17.07971        -0.69675
C         16.08348        19.18865        -0.39256
C         14.85742        18.49690        -0.32631
C         16.08070        20.60393        -0.35761
C         14.87325        21.31867        -0.22013
C         16.11420        23.46606        -0.31428
C         14.87025        22.75651        -0.20034
C         16.11531        24.89298        -0.31488
C         14.90074        25.61852        -0.09207
C         16.05749        27.76475        -0.55700
C         14.92459        27.04234        -0.12248
C         16.05509        29.18852        -0.63063
C         14.81026        29.90080        -0.41444
C         15.95893        32.08240        -0.66602
C         14.80270        31.34795        -0.51673
C         15.96288        33.53022        -0.57953
C         14.71692        34.23022        -0.48599
C         15.91270        36.37775        -0.48484
C         14.68273        35.65683        -0.47080
C         15.88123        37.83294        -0.54588
C         14.64995        38.50432        -0.58806
C         18.38230         3.45375         1.04296
C         17.16260         4.12471         0.73551
C         18.41050         6.25589         0.68960
C         17.19388         5.53702         0.51225
C         18.48635         7.76211         0.46981
C         17.09647         8.41913         0.64546
C         18.24414        10.63758         0.86661
C         17.13154         9.91992         0.38579
C         18.32453        12.05086         0.67544
C         17.23682        12.71389         0.04409
C         18.49643        14.91912         0.22849
C         17.39956        14.12696        -0.33870
C         18.52704        16.33773         0.08934
C         17.38175        17.07253        -0.39371
C         18.56171        19.20474        -0.06333
C         17.35046        18.46913        -0.34303
C         18.58677        20.60945        -0.20317
C         17.35629        21.30546        -0.72555
C         18.56775        23.47285        -0.47014
C         17.33733        22.77653        -0.44106
C         18.55289        24.89181        -0.64480
C         17.33347        25.57500        -0.60437
C         18.57917        27.80500        -1.00592
C         17.26358        27.01618        -0.91906
C         18.51119        29.26446        -0.83815
C         17.27035        29.91620        -0.83313
C         18.48439        32.15487        -0.72436
C         17.22981        31.40885        -1.11117
C         18.45705        33.53534        -0.49993
C         17.17297        34.25073        -0.48210
C         18.35495        36.45443        -0.14431
C         17.12753        35.67401        -0.39492
C         18.34529        37.90426        -0.43116
C         17.10479        38.54879        -0.59142
C         19.55624         4.16119         1.19458
C         20.79357         6.33603         1.34244
C         19.58023         5.57816         1.05153
C         20.78173         7.67692         1.52211
C         19.50586         8.42557         1.39221
C         20.56154        10.74008         1.85892
C         19.38418         9.93650         1.52278
C         20.60484        12.07965         1.62387
C         19.49631        12.79865         1.05909
C         20.66240        14.99435         1.35322
C         19.54736        14.22278         0.89519
C         20.73544        16.34976         1.14767
C         19.67479        17.07105         0.52523
C         20.91581        19.25571         0.57555
C         19.73191        18.49571         0.34836
C         20.94946        20.61750         0.37608
C         19.78709        21.34417        -0.03052
C         21.01793        23.53255        -0.24632
C         19.80449        22.76209        -0.28136
C         21.05140        24.85486        -0.55685
C         19.83827        25.59348        -1.05060
C         20.92189        27.81833        -0.36538
C         19.82470        27.08201        -0.72540
C         20.90238        29.24892        -0.41492
C         19.75789        29.96608        -0.69634
C         20.98142        32.19242        -0.52316
C         19.78538        31.44873        -1.02411
C         20.91698        33.53624        -0.29474
C         19.68734        34.25495        -0.33969
C         20.87660        36.52698        -0.47252
C         19.70468        35.71908        -0.13871
C         20.79879        37.90000        -0.53641
C         19.56700        38.59318        -0.49046
O          6.63164         5.94486        -1.93266
O         12.70148        14.27999         1.50323
O         11.89079        11.89306         0.86725
O          4.27373        16.54307        -1.74741
O          1.90483        22.25081         2.37661
O          8.42655        25.04327         2.51261
O         15.48117        16.89404        -2.00743
O          5.20778        26.12553         2.94589
O         14.27835         8.57862         1.06358
O         13.33057        11.33837        -2.20896
O         19.00040         8.99909         2.62883
O         17.85650        27.35153        -2.21835
O         11.16201        32.96606         1.51760
O         19.01882        36.11672         1.10897
O          9.16319        33.60772        -1.41417
O         11.07980         2.22374         1.01951
O          4.02051        14.47334         1.25026
O          2.32316         9.09702        -2.42362
O         13.37852        27.44133         1.71976
O          2.83098         6.24717         1.02344
O          9.83938         4.53754        -1.46425
O          2.74105        26.10847         3.24589
O          4.50003        10.45479        -2.32222
O         17.15174        14.35558        -1.76424
O         16.59976         7.56331        -1.58825
O         18.96771         8.01482        -0.85457
H         18.21689         7.77678        -1.48283
O          6.40929        15.08542         1.68509
H          5.51508        15.06751         2.10554
O         17.17140        31.49723        -2.58787
H         18.07472        31.24719        -2.91177
O          5.88469         7.68441         1.24967
H          5.93479         8.58865         1.62405
O          9.93401        21.58865        -1.85120
H          9.91648        20.70336        -2.27395
O          1.18259        16.26616         1.51348
H          1.11482        17.15746         1.91594
O         15.36031        12.58230        -2.49644
H         14.75995        13.12889        -3.04532
O          4.98574        21.95205        -1.64546
H          4.93770        21.17539        -2.24298
O          8.90582        27.77999         2.83551
H          8.93722        26.84828         3.16168
O         19.89135        25.53064        -2.51393
H         19.12600        26.06450        -2.84213
O         10.82443        38.03469         1.54878
H         11.63090        37.65129         1.95683
O          7.29665        26.90555        -0.35901
H          7.21954        27.82254        -0.69967
O         10.83503        10.66809        -2.42628
H         11.70371        10.90491        -2.83251
O         12.65763        16.89316         1.66273
H         12.65499        15.89858         1.87155
O          1.24753        19.69265        -2.15367
H          1.33769        18.85755        -2.65960
O         17.43616        21.20575        -2.20110
H         17.43604        20.25123        -2.43053
O         10.96784         7.75539         1.52172
H         11.06725         8.68195         1.83166
O          8.46448        36.52801         1.64806
H          9.22151        37.13277         1.86285
O         16.61830         8.18278         1.96274
H         17.21213         8.64342         2.60452
O          2.32610        35.41364         1.64039
H          2.29505        36.35259         1.91921
O         19.90413        31.45441        -2.52388
H         20.11175        32.37740        -2.78701
O         13.09652        31.87968        -2.04113
H         13.89746        32.09327        -2.56817
O         15.36973         9.62837        -2.31625
H         15.39202        10.52516        -2.72718
O         13.22984         6.26225         1.90828
H         12.39568         6.76213         2.09284
O          2.33864        33.87457        -1.68163
H          2.32140        32.93620        -1.96310
H          1.11916         2.37716        -0.47732
H         -0.96418         3.58974        -1.03414
H         -1.00350         6.05242        -1.27652
H         -1.06407         8.06517        -0.65588
H         -1.03844        10.49396        -0.73564
H         -1.01179        12.43026        -1.18033
H         -1.01708        14.84158        -0.78116
H         -1.06351        16.74088        -0.13801
H         -1.00726        19.07078        -0.69559
H         -0.89779        21.04594        -0.16266
H         -0.85840        23.28423         0.80654
H         -0.74555        24.98043         2.04176
H         -0.75513        27.31825         2.13948
H         -0.88159        29.15696         1.43516
H         -0.99454        31.47191         0.69022
H         -1.06205        33.41733         0.35385
H         -1.09515        35.76965        -0.40491
H          0.10676        37.96141        -0.76243
H          3.56471         2.42773        -0.11655
H          2.22228        39.20759        -0.93978
H          6.02472         2.45870         0.19666
H          4.69483        39.26396        -0.99530
H          8.39229         2.57371         0.85671
H          7.16077        39.32135        -1.08481
H         11.35761         2.42126        -0.97025
H          9.67685        39.42741        -0.88703
H         13.42692         2.39167         0.54610
H         12.20062        39.59159        -0.37058
H         15.89725         2.34784         0.76666
H         14.64275        39.60314        -0.64660
H         18.37215         2.36345         1.18636
H         17.08050        39.64198        -0.71448
H         20.48659         3.63728         1.45864
H         21.72910         5.77400         1.48526
H         21.69518         8.20731         1.82818
H         21.41321        10.24023         2.34023
H         21.51777        12.62467         1.89713
H         21.48884        14.50315         1.88238
H         21.61798        16.89162         1.51319
H         21.83884        18.74642         0.88425
H         21.89615        21.14989         0.53922
H         21.95847        23.03339         0.02751
H         22.01979        25.37507        -0.56450
H         21.87823        27.32869        -0.13515
H         21.86022        29.76507        -0.26815
H         21.95491        31.68623        -0.47879
H         21.83469        34.07757        -0.02279
H         21.82456        36.02602        -0.71451
H         21.71505        38.47729        -0.72695
H         19.55963        39.68380        -0.62701
