         647
 CSIRO Nanostructure Databank - Neutral Graphene Oxide Data Set
C          5.95879        31.83435         1.21908
C          5.95723        33.19857         1.21775
C          8.41198        27.43812         1.07030
C          8.35948        28.88543         1.28273
C          7.13453        29.66171         1.08769
C          8.42973        31.73851         0.87699
C          7.17389        31.04246         1.11000
C          8.33582        33.17871         0.50408
C          7.15174        33.96193         0.93849
C          8.40095        36.11122         0.76963
C          7.20852        35.33509         1.02572
C          8.45019        37.46803         0.96362
C         10.77644        23.11129         0.51602
C         10.80877        24.54378         0.54901
C          9.63902        25.30121         0.76941
C         10.87219        27.42257         0.88473
C          9.63410        26.73787         0.90963
C         11.00033        28.88334         1.25005
C          9.68855        29.66755         1.25912
C         10.82199        31.68576         0.08391
C          9.62853        31.06220         0.78959
C         10.86534        33.18900         0.25915
C          9.60421        33.92494         0.21514
C         10.89903        36.02285         0.83341
C          9.63910        35.44780         0.17703
C         10.90496        37.52021         0.69243
C          9.68159        38.23497         0.75752
C         10.90871        40.34878         0.19219
C          9.68070        39.63354         0.67932
C         10.93035        41.83724         0.37930
C         13.21744        18.77955         0.59951
C         13.14209        20.16332         0.33796
C         11.97234        20.94778         0.59084
C         13.23980        23.04229         0.18236
C         11.94813        22.34266         0.40651
C         13.24359        24.52302         0.04060
C         12.05875        25.22381         0.38279
C         13.30042        27.41126         0.24850
C         12.15614        26.64335         0.86072
C         13.32955        28.79298         0.32418
C         12.14908        29.57411         0.55522
C         13.34067        31.66972         0.13952
C         12.14580        30.97952         0.36925
C         13.37648        33.11340        -0.10238
C         12.08413        33.92179         0.00659
C         13.35812        36.03959         0.29716
C         12.16794        35.37341         0.31328
C         13.48724        37.48858         0.63042
C         12.18094        38.22279         0.83422
C         13.47410        40.42299         0.42140
C         12.18321        39.71164         0.73225
C         13.39544        41.85390         0.10888
C         12.11870        42.55125         0.25871
C         13.28683        44.73203         0.02822
C         12.10889        43.97969         0.20168
C         13.28838        46.12439        -0.03099
C         15.83570        14.70866         1.21607
C         15.75745        16.00800         0.69810
C         14.51711        16.69276         0.78246
C         15.53954        18.64398        -0.28890
C         14.41832        18.03893         0.39306
C         15.23310        19.90271        -0.85570
C         14.24415        20.76083        -0.36546
C         15.61250        22.98018        -0.90266
C         14.42448        22.23850        -0.30161
C         15.64151        24.47881        -0.78622
C         14.42237        25.19004        -0.31462
C         15.72461        27.37614        -0.60789
C         14.42340        26.65761        -0.34149
C         15.87520        28.73215         0.01116
C         14.65022        29.51117         0.47788
C         15.89825        31.66279        -0.22882
C         14.60904        30.93234        -0.04584
C         15.95290        33.12393         0.09280
C         14.63839        33.82992         0.25172
C         15.91035        36.08234        -0.07005
C         14.64776        35.32303         0.27119
C         15.80876        37.53750        -0.31405
C         14.70300        38.24192         0.16114
C         15.83155        40.40589        -0.38443
C         14.70106        39.67882         0.08178
C         15.80738        41.83292        -0.40222
C         14.58642        42.53035        -0.10180
C         15.86450        44.71081        -0.18865
C         14.58066        43.99743         0.03702
C         15.80476        46.15161        -0.58320
C         14.48145        46.89273        -0.40896
C         15.78749        49.02602        -0.28505
C         14.57123        48.33449        -0.21846
C         15.81604        50.43651        -0.14153
C         18.38375        10.50506         1.94691
C         18.31702        11.88571         1.58835
C         17.16340        12.61131         1.76620
C         18.29215        14.62077         0.80667
C         17.13696        14.11476         1.65416
C         18.19846        15.96109         0.16531
C         16.92491        16.71762         0.19984
C         18.13515        18.68080        -0.74776
C         16.85633        18.01656        -0.31873
C         18.21761        20.13312        -0.95978
C         17.11569        20.90662        -1.23024
C         18.24880        23.05064        -0.69316
C         16.95152        22.28903        -0.79781
C         18.20316        24.51980        -0.88196
C         16.96091        25.20245        -0.78956
C         18.20369        27.30629        -1.01580
C         16.99238        26.60832        -0.78683
C         18.18901        28.78335        -1.10927
C         17.15449        29.44890        -0.25966
C         18.39364        31.68719        -0.61495
C         17.19967        30.93473        -0.12283
C         18.21767        33.12886        -0.94848
C         17.12769        33.89626        -0.33693
C         18.24210        36.00121        -0.92114
C         17.10153        35.30321        -0.50036
C         18.22295        37.42982        -1.24526
C         16.94214        38.23286        -0.94119
C         18.19836        40.36204        -1.19665
C         17.05001        39.71059        -0.81677
C         18.14980        41.85625        -1.45263
C         17.01233        42.57076        -0.72854
C         18.37866        44.67193        -0.58901
C         17.05967        43.94094        -0.59880
C         18.28194        46.18888        -0.66854
C         17.07565        46.89835        -0.52278
C         18.27854        49.01177        -0.31804
C         17.05279        48.31150        -0.42027
C         18.27728        50.43266        -0.05774
C         17.02998        51.15353        -0.02271
C         18.25175        53.23803         0.46164
C         17.04471        52.54879         0.20622
C         18.27577        54.62682         0.75427
C         20.79825         6.26792         2.80324
C         20.83717         7.74153         2.46901
C         19.64448         8.43722         2.37777
C         20.83785        10.46995         1.64116
C         19.59855         9.80709         1.97800
C         20.83951        11.81072         1.18503
C         19.52494        12.49685         0.89705
C         20.81335        14.57741         0.39492
C         19.64169        14.00366         1.15074
C         20.79504        16.01102         0.07912
C         19.47009        16.72121        -0.01083
C         20.61858        18.65050        -1.25412
C         19.35904        18.03844        -0.65663
C         20.69866        20.14365        -1.02454
C         19.48483        20.85310        -0.85685
C         20.69145        22.96433        -1.10999
C         19.48653        22.27360        -0.92138
C         20.63607        24.42283        -1.39569
C         19.40269        25.20536        -1.13652
C         20.65235        27.38351        -1.45882
C         19.41938        26.62632        -1.24864
C         20.70536        28.76665        -1.54935
C         19.45575        29.53875        -1.44040
C         20.72537        31.68485        -1.52772
C         19.56153        30.98058        -1.16142
C         20.76118        33.10386        -1.41752
C         19.50577        33.84625        -1.31037
C         20.79734        36.07069        -1.09610
C         19.53183        35.29082        -0.95694
C         20.70877        37.53675        -1.30175
C         19.49549        38.17626        -1.36697
C         20.72229        40.37093        -1.67808
C         19.39393        39.62117        -1.81478
C         20.66764        41.85236        -2.02899
C         19.48813        42.57474        -1.37203
C         20.70611        44.78116        -1.45377
C         19.38367        44.07434        -1.59167
C         20.70568        46.23830        -1.26456
C         19.48407        46.91529        -0.78311
C         20.76576        48.98310        -0.31836
C         19.50612        48.30759        -0.51680
C         20.72369        50.28183         0.45692
C         19.48094        51.10664         0.21099
C         20.70879        53.17433         0.81707
C         19.48420        52.49397         0.48053
C         20.69560        54.52634         1.16120
C         19.47162        55.28740         1.11743
C         20.69878        57.38076         1.72442
C         19.49473        56.67418         1.41986
C         20.71563        58.77736         1.93842
C         23.43570         3.75327         3.91569
C         22.19757         4.38487         3.67222
C         23.34760         6.36138         2.84071
C         22.14363         5.66690         3.13314
C         23.32377         7.71199         2.35214
C         22.07584         8.39944         2.19671
C         23.29047        10.43578         1.48396
C         22.06759         9.76585         1.78267
C         23.27770        11.77998         1.00767
C         22.03011        12.46780         0.83643
C         23.20543        14.47564        -0.12148
C         22.00714        13.85378         0.34640
C         23.25879        15.86972        -0.49482
C         22.00854        16.64866        -0.49951
C         23.15516        18.61655        -1.47527
C         21.93561        17.94001        -0.95319
C         23.19937        20.15106        -1.60441
C         21.91008        20.83606        -1.16445
C         23.18260        22.99201        -1.09119
C         21.90488        22.24908        -1.15111
C         23.19161        24.46787        -1.28772
C         21.90825        25.17093        -1.58584
C         23.23470        27.36748        -1.37300
C         21.92422        26.63965        -1.32539
C         23.22246        28.81008        -1.70616
C         21.94494        29.52106        -1.72262
C         23.14252        31.65023        -2.27677
C         21.91210        30.90986        -1.88497
C         23.17630        33.15934        -2.20242
C         21.86743        33.93649        -2.03226
C         23.18499        36.05448        -1.68579
C         22.01766        35.34971        -1.51825
C         23.15010        37.51516        -1.60784
C         21.96538        38.23723        -1.49604
C         23.21153        40.40911        -1.53693
C         21.93185        39.70007        -1.59590
C         23.24806        41.82831        -1.46352
C         22.00888        42.58687        -1.82288
C         23.18923        44.75439        -1.06703
C         21.97244        44.07785        -1.62626
C         23.34277        46.23546        -1.41249
C         22.01778        47.02765        -1.21813
C         23.21205        49.03536        -0.18241
C         21.98130        48.35258        -0.53955
C         23.22396        50.37897         0.14374
C         21.98877        51.09488         0.37390
C         23.21808        53.20728         0.78633
C         21.95923        52.43142         0.71400
C         23.21034        54.63278         1.19986
C         21.92053        55.16577         1.76932
C         23.15115        57.32290         2.05534
C         21.93372        56.66736         1.80193
C         23.15204        58.72588         2.30011
C         21.92030        59.45398         2.24373
C         23.13526        61.50051         2.80924
C         21.94251        60.85575         2.49766
C         24.61894         4.39382         3.60655
C         25.80563         6.38386         2.74638
C         24.60499         5.71234         3.06619
C         25.79501         7.70110         2.24664
C         24.53933         8.38368         2.07141
C         25.74781        10.41125         1.32788
C         24.53072         9.74253         1.61895
C         25.74707        11.75663         0.84817
C         24.49984        12.41015         0.65353
C         25.75493        14.33486        -0.45976
C         24.43417        13.66617        -0.11401
C         25.77240        15.74957        -1.05125
C         24.46462        16.49658        -0.83051
C         25.78220        18.62100        -1.43793
C         24.46573        17.86524        -1.38913
C         25.76488        20.12725        -1.23917
C         24.42646        20.76549        -0.85906
C         25.63499        22.95242        -0.98292
C         24.47271        22.26065        -1.09080
C         25.64928        24.43483        -1.09189
C         24.47161        25.11296        -1.77801
C         25.67799        27.29631        -1.68682
C         24.49808        26.62214        -1.60197
C         25.70630        28.76119        -1.75972
C         24.42210        29.44891        -1.89378
C         25.58986        31.58934        -1.58411
C         24.46837        30.87880        -2.37596
C         25.60209        33.10811        -1.65211
C         24.45779        33.85042        -1.84546
C         25.62886        35.98213        -1.42692
C         24.45435        35.30955        -1.71192
C         25.71728        37.44599        -1.59714
C         24.41754        38.24768        -1.76533
C         25.68437        40.34858        -1.32930
C         24.43929        39.69623        -1.49596
C         25.71904        41.79272        -1.18229
C         24.45883        42.49674        -1.21526
C         25.72822        44.70796        -0.85063
C         24.43400        43.94429        -0.88032
C         25.68114        46.03763        -0.11817
C         24.54584        46.88739        -0.72159
C         25.60843        48.55583         0.79387
C         24.49104        48.28484        -0.20466
C         25.84679        50.69794        -0.10347
C         24.50875        51.04846         0.48237
C         25.76448        53.22576         1.11938
C         24.49559        52.47340         0.94949
C         25.71529        54.55916         1.56323
C         24.47127        55.27007         1.65315
C         25.64638        57.29019         2.39188
C         24.41841        56.59915         2.05730
C         25.59239        58.67110         2.68738
C         24.37713        59.40037         2.62436
C         24.34004        60.79399         2.87944
C         27.00056         8.37960         1.93632
C         28.20547        10.39677         1.22136
C         26.99569         9.71202         1.49104
C         28.26402        11.77379         0.93587
C         26.99413        12.48390         0.71074
C         27.95409        14.75938         0.55870
C         26.91305        13.82898         0.28306
C         28.15560        15.96890        -0.08873
C         27.01157        16.57954        -0.72440
C         28.28987        18.70977        -0.98909
C         27.02785        17.91493        -1.06112
C         28.21830        20.17527        -0.73754
C         26.99500        20.83186        -0.79753
C         28.15318        23.05806        -0.65881
C         26.86951        22.29380        -0.40898
C         28.21438        24.40770        -0.97391
C         26.94193        25.16837        -1.13205
C         28.18850        27.26424        -1.45408
C         26.95538        26.50197        -1.89458
C         28.16578        28.76520        -1.41052
C         26.90017        29.46016        -1.75099
C         28.13042        31.56871        -1.17966
C         26.95488        30.96950        -1.97373
C         28.14554        33.08243        -1.16680
C         26.82288        33.74227        -1.10561
C         28.11396        35.93999        -0.84932
C         26.82063        35.25008        -0.97505
C         27.99681        37.38109        -0.43645
C         26.89193        38.17523        -1.11585
C         28.16650        40.26378        -0.88723
C         26.87683        39.55866        -1.09841
C         28.22514        41.76339        -0.95701
C         26.94310        42.48535        -1.02263
C         28.24824        44.63749        -0.44494
C         27.01971        43.95531        -0.93095
C         28.24843        46.11763        -0.39382
C         26.98542        46.82598        -0.14357
C         28.18261        48.89946         0.57039
C         26.97128        48.12303         0.31383
C         28.15278        50.31297         0.90432
C         27.01597        51.12767         0.72062
C         28.17253        53.09898         1.67988
C         26.97918        52.47859         1.16415
C         28.12990        54.46312         2.05721
C         26.93193        55.21226         1.99856
C         26.86526        56.57362         2.38812
C         29.57919        12.30394         0.74111
C         30.88759        14.50584         0.47192
C         29.87529        13.68170         0.89499
C         30.70408        16.01264         0.59138
C         29.57273        16.48724        -0.39804
C         30.73610        18.79850        -0.16716
C         29.57949        18.00202        -0.62182
C         30.67850        20.20466        -0.20968
C         29.43170        20.87038        -0.40731
C         30.70679        23.09821        -0.34696
C         29.38114        22.33200        -0.29394
C         30.68695        24.49333        -0.83815
C         29.46086        25.11900        -1.09729
C         30.67311        27.32842        -1.11771
C         29.50331        26.53389        -1.64624
C         30.63425        28.77368        -1.13454
C         29.46381        29.47430        -1.39600
C         30.63424        31.70730        -1.07959
C         29.45691        30.96654        -1.65799
C         30.60559        33.07329        -0.88698
C         29.31528        33.78400        -0.94315
C         30.55358        35.92815        -0.43253
C         29.30281        35.23672        -0.74336
C         30.51267        37.36943        -0.22709
C         29.32915        38.06285        -0.39129
C         30.49764        40.21941         0.23455
C         29.25961        39.51466        -0.18874
C         30.60713        41.69387         0.05403
C         29.45990        42.49107        -0.45839
C         30.55014        44.60381         0.45140
C         29.38737        43.94115        -0.12356
C         30.64193        45.98519         0.53923
C         29.52566        46.83714         0.07121
C         30.58987        48.85301         1.10304
C         29.41250        48.21873         0.59269
C         30.53899        50.16229         1.53679
C         29.34156        50.93913         1.43020
C         29.34068        52.30236         1.77697
C         31.98481        16.74460         0.30262
C         33.19998        18.87140         0.14673
C         31.97985        18.11249         0.09991
C         33.19952        20.25083         0.01029
C         31.93013        20.95833        -0.15007
C         33.22412        23.02668        -0.61859
C         31.94889        22.31839        -0.37835
C         33.20498        24.50781        -0.85718
C         31.90804        25.22445        -0.87017
C         33.02430        27.39485        -0.31973
C         31.85707        26.64896        -0.84699
C         33.02539        28.86967        -0.45979
C         31.88441        29.49757        -0.91607
C         33.15982        31.71569        -0.87653
C         31.89652        30.95857        -1.13825
C         33.06056        33.14388        -0.52454
C         31.83528        33.80826        -0.58648
C         33.00857        35.95156        -0.06964
C         31.77183        35.24068        -0.35086
C         32.96938        37.36244         0.19204
C         31.74238        38.08229         0.11709
C         32.94722        40.17631         0.75230
C         31.75965        39.46529         0.35114
C         32.87372        41.55426         1.11955
C         31.62083        42.30509         0.95708
C         32.87657        44.44112         1.51412
C         31.61039        43.80040         1.10777
C         32.88786        45.87876         1.54408
C         31.80749        46.61947         1.11991
C         31.91770        48.12814         1.06230
C         34.41696        21.00171         0.10747
C         35.62645        23.15636         0.07386
C         34.46826        22.37281        -0.14300
C         35.65439        24.56105        -0.07137
C         34.50510        25.30222        -0.74429
C         35.55617        27.44381         0.09734
C         34.32004        26.67270        -0.12459
C         35.40355        28.88876         0.48178
C         34.26150        29.60200        -0.21574
C         35.63773        31.69660        -0.46328
C         34.33428        30.95300        -0.41837
C         35.51785        33.16607        -0.13897
C         34.29882        33.82570        -0.19851
C         35.46528        35.96927         0.22394
C         34.23763        35.25787        -0.01078
C         35.37582        37.37867         0.28425
C         34.17227        38.08562         0.46882
C         35.29319        40.11218         1.55417
C         34.18045        39.47086         0.87052
C         35.15788        41.46924         1.93000
C         33.99896        42.22657         1.65473
C         33.96399        43.65900         1.85464
C         36.75923        25.31964         0.32425
C         37.90377        27.50894         0.78434
C         36.74188        26.75993         0.36457
C         37.90336        28.89655         0.83524
C         36.70994        29.64010         0.46845
C         37.96474        31.75193         0.54051
C         36.76121        30.99319         0.25452
C         37.99680        33.12150         0.39957
C         36.83368        33.92045        -0.15091
C         37.80002        35.90621         1.17634
C         36.71562        35.32047         0.41498
C         37.69719        37.16813         1.90483
C         36.94557        38.24154         1.43269
C         36.45387        39.41292         2.04121
C         39.08664        29.64972         1.15775
C         40.30364        31.78180         1.41667
C         39.12085        31.02104         1.04809
C         40.37440        33.11490         1.23917
C         39.26632        33.90833         0.60300
C         38.96529        35.16776         1.37270
O         25.13167        13.42883        -1.41542
O         12.88510        40.30756         1.82712
O         15.43168        44.44552         1.19074
O         21.24695        47.00080        -2.44578
O         15.33844        33.31840         1.42047
O         15.39271        23.75305        -2.09791
O         20.25163        16.78976         1.25966
O         26.56454        34.38328         0.19909
O         33.39921        26.82894         1.01942
O         12.99852        37.75479         1.98335
O         24.48589        51.37186         1.91551
O         28.82509        14.35962         1.57754
O         31.06004        42.90659         2.16488
O         29.45793        39.88797         1.23074
O         33.30918        23.56299        -2.00584
O         17.23283        37.74810        -2.29121
O         28.02889        27.89955        -0.17762
O         21.18500        24.74207        -2.75927
O         25.87623        19.53481        -2.57211
O         14.78198        27.25040        -1.68791
O         32.76205        31.39543        -2.27547
O          8.71978        33.42229        -0.89802
O         15.15449        31.21005        -1.39993
O         30.00114        22.89195         0.91882
O         23.07465        32.48147        -3.50784
O         16.03521        20.35769        -1.90988
O         18.51103        33.48629        -2.33113
O         18.14616        31.44682         0.83841
O         23.54420        44.30253         0.25534
O         23.24685        54.28992        -0.21993
O         16.95240        28.73335         0.99283
O         25.23079        37.86954        -2.91910
O         15.00911        46.42927        -1.74983
O         22.61201        27.00328        -0.07903
O         25.97651        50.33840        -1.26705
O         26.13322        25.14937         0.09141
O         36.53607        38.10294         0.07523
O         18.06709        14.71380        -0.62253
O         23.20482        23.95953         0.06482
O         14.29090        22.61876         1.11954
O         18.38265        29.28511        -2.46054
O         23.71172        17.95575        -2.65529
O         26.42986        44.68845        -2.10339
O         15.53002        35.81231         1.32684
O         12.73229        33.57342        -1.32711
O          9.02572        29.41269         2.53559
O         22.26573        43.47781        -2.97356
O         25.04185        47.98437        -1.53034
O         29.26266        18.33924        -2.03016
O         28.55814        40.93216        -2.13158
O         29.17655        46.73141        -1.34292
O         25.39554        48.84368         1.96192
O         17.55722        22.56308         0.51042
O         20.35139        35.58638         0.24108
O         30.64223        42.19643        -1.30669
O         27.95312        31.17540         0.20865
H         28.62195        31.63687         0.75714
O         21.93908        54.72750         3.17563
H         21.16869        55.13647         3.62399
O         24.55016        24.83887        -3.19554
H         25.36360        25.27797        -3.54813
O         20.38363        41.90541        -3.46402
H         21.05596        42.51345        -3.86337
O         39.75168        34.34892        -0.71058
H         38.95112        34.49627        -1.27667
O         19.92754        14.23341         2.55999
H         20.19640        15.18055         2.63310
O         25.39693        45.73028         1.26307
H         25.36434        46.55787         1.79014
O         29.87595        15.86081        -1.65986
H         29.48534        16.43160        -2.36396
O         25.28440        31.28726        -0.20476
H         26.11749        31.35371         0.32382
O         24.25108        20.53444         0.55865
H         24.89255        21.11710         1.03450
O         29.69159        26.42116        -3.11196
H         30.51830        25.91429        -3.26603
O         19.30139        12.34630        -0.52929
H         19.16522        11.39495        -0.71803
O         18.96427        44.39410         0.71883
H         18.28420        44.56600         1.40499
O         23.33716        20.48879        -2.99351
H         23.78895        19.72701        -3.43264
O         32.58307        48.48068        -0.16980
H         32.01738        48.18971        -0.91555
O         20.48201        18.47361        -2.70516
H         19.80710        19.10755        -3.02789
O         12.57291        26.48638         2.27812
H         12.36543        27.35131         2.72281
O         17.33068        14.61225         3.02389
H         18.25773        14.37220         3.28043
O         34.93846        25.58881        -2.10106
H         34.78072        24.76567        -2.61958
O         37.15248        34.11698        -1.59151
H         36.97452        33.23886        -2.02200
O         19.85461         6.01163         3.85314
H         20.17663         6.44986         4.66714
O         11.00493        40.08640        -1.26518
H         10.16133        40.36993        -1.67715
O         29.63053        31.15830        -3.08601
H         30.57529        30.99813        -3.29799
O         10.85347        35.70902         2.25516
H         11.57491        36.22604         2.68422
O         14.78731        29.64172         1.91904
H         13.91136        29.86179         2.30260
O         27.54526        37.33307         0.97058
H         28.21093        36.83073         1.48720
O         35.00437        28.86894         1.90114
H         34.30262        28.17362         1.98140
O         30.34384        16.42612         1.92882
H         29.70127        15.76147         2.27681
O         36.02775        31.65190        -1.90312
H         35.20027        31.72362        -2.43052
O         10.62818        31.43545        -1.35024
H         11.25005        32.03070        -1.82981
O         27.02771        26.18916        -3.31082
H         27.98472        26.13641        -3.56846
O         18.84535        44.38065        -2.93919
H         19.57783        44.25020        -3.58074
O         17.72593        41.92957        -2.87152
H         17.92697        42.85656        -3.17112
O          9.71543        35.83143        -1.21399
H          9.14242        35.20547        -1.71342
O         19.11199        39.55130        -3.23908
H         18.80484        40.45121        -3.51580
O         23.64012        46.22021        -2.81509
H         24.00382        47.10117        -3.05635
O         26.61842        22.31212         1.04450
H         26.50340        23.25925         1.29439
O         25.86261        15.60257        -2.49505
H         25.32070        14.81467        -2.73522
O         11.47255        28.89586         2.66468
H         10.64223        28.89472         3.20789
O         20.62883        49.85134         1.86755
H         20.77155        50.64280         2.42988
O         21.32797        34.21719        -3.36634
H         21.58223        33.45944        -3.94649
O         27.22592        31.27721        -3.34411
H         26.49392        30.90142        -3.89298
O         24.77338        30.73939        -3.78512
H         24.32861        31.48761        -4.25435
H          5.01677        31.29298         1.39166
H          5.02151        33.74651         1.40430
H          7.46373        26.89065         0.97131
H          6.17036        29.13499         1.02807
H          6.31087        35.88077         1.35886
H          7.55144        38.01326         1.29177
H          9.81500        22.60196         0.67949
H          8.67901        24.77154         0.86550
H          8.74273        40.19297         0.81444
H          9.97754        42.38397         0.44603
H         12.36272        18.27063         1.06790
H         11.05426        20.43431         0.91286
H         11.14222        44.50288         0.24770
H         12.35010        46.67357         0.13959
H         14.90686        14.22425         1.55585
H         13.65404        16.19059         1.24311
H         13.65840        48.88449         0.05552
H         14.86365        50.98316        -0.07459
H         17.46843        10.00251         2.29552
H         16.28339        12.11803         2.21011
H         16.09274        53.09934         0.23341
H         17.33467        55.19586         0.72578
H         20.40071         5.72823         1.89635
H         18.70317         7.92094         2.61718
H         18.55284        57.24035         1.36873
H         19.77618        59.34677         1.88056
H         23.45110         2.73999         4.34062
H         21.25977         3.86206         3.90686
H         23.13186        62.58199         3.00561
H         21.00304        61.42465         2.44879
H         25.58469         3.89791         3.77996
H         26.76755         5.87265         2.90028
H         26.52181        59.20341         2.94010
H         25.27198        61.31987         3.13159
H         27.95994         7.85739         2.06724
H         29.15050         9.84218         1.32460
H         29.04498        54.94392         2.43448
H         27.79070        57.09287         2.67945
H         30.39559        11.58978         0.55613
H         31.73354        14.11138        -0.10724
H         31.44827        50.64191         1.92897
H         30.27509        52.76072         2.13459
H         32.94251        16.22380         0.45496
H         34.14612        18.33592         0.31277
H         33.79169        46.39409         1.90269
H         32.57387        48.49318         1.89165
H         35.33565        20.47210         0.40180
H         36.52416        22.65563         0.46975
H         36.00583        41.96121         2.42928
H         34.88503        44.14939         2.20513
H         37.65258        24.80186         0.70673
H         38.82491        26.95842         1.02697
H         38.26761        37.26424         2.84005
H         36.95662        39.81594         2.93275
H         39.98125        29.10752         1.49990
H         41.15190        31.23245         1.85299
H         41.28799        33.66364         1.51304
H         39.76058        35.59905         2.00140
