         638
 CSIRO Nanostructure Databank - Neutral Graphene Oxide Data Set
C         22.99414        70.05419         0.81273
C         22.99528        71.46195         0.80719
C         21.78586        72.21598         0.87722
C         23.03404        74.30155         0.84929
C         21.81733        73.60303         0.89160
C         25.45979        65.77402         0.84551
C         25.44348        67.19206         0.85317
C         24.22776        67.90889         0.83214
C         25.45177        70.04144         0.72786
C         24.20489        69.32427         0.79848
C         25.45094        71.44735         0.62849
C         24.24402        72.16679         0.71115
C         25.50326        74.29623         0.79729
C         24.25957        73.61104         0.75598
C         27.76914        61.38098         0.85622
C         27.85163        62.89297         0.83496
C         26.67547        63.61896         0.83188
C         27.91549        65.74081         0.95856
C         26.67164        65.05063         0.87081
C         27.94018        67.18612         1.00206
C         26.68892        67.91269         0.89807
C         27.92705        70.05349         0.90682
C         26.69292        69.32089         0.82670
C         27.96685        71.42959         0.69983
C         26.72522        72.16715         0.26012
C         27.95514        74.28592         0.74986
C         26.73327        73.62430         0.66492
C         30.32035        57.10067         0.67585
C         30.28514        58.48908         0.71598
C         29.08489        59.27289         0.66313
C         30.32201        61.40643         0.72903
C         29.09594        60.66044         0.74379
C         30.33875        62.84440         0.80288
C         29.10843        63.57403         0.86916
C         30.38365        65.68030         1.06273
C         29.13752        65.00042         0.97030
C         30.41289        67.13177         1.47180
C         29.14034        67.86652         1.15161
C         30.44578        70.02126         0.99213
C         29.15984        69.34662         1.40503
C         30.42548        71.41493         0.82284
C         29.20528        72.13170         0.73528
C         30.38821        74.26933         0.38976
C         29.20923        73.59110         0.61697
C         32.77575        52.72738         0.48051
C         32.76039        54.16250         0.57020
C         31.57732        54.90147         0.63828
C         32.76932        57.03526         0.64791
C         31.55954        56.34981         0.67565
C         32.83684        58.48596         0.82802
C         31.53867        59.24819         0.89723
C         32.77374        61.37946         0.48821
C         31.55622        60.70593         0.65615
C         32.80362        62.82377         0.55415
C         31.57069        63.54236         0.79644
C         32.84024        65.69388         0.91713
C         31.59556        64.97534         0.93131
C         32.87659        67.10795         0.89889
C         31.65424        67.87111         1.01502
C         32.89068        69.93996         0.31871
C         31.64673        69.25664         0.86392
C         32.94803        71.43418         0.56064
C         31.70155        72.21893         0.89119
C         32.92311        74.25663         0.09961
C         31.62579        73.48856         0.03947
C         35.27142        48.45850         0.34639
C         35.22396        49.87602         0.26389
C         34.00530        50.58433         0.36427
C         35.27821        52.71896         0.63680
C         33.96518        51.99882         0.42632
C         35.22328        54.18540         0.31239
C         34.03712        54.85613         0.48250
C         35.12883        57.01899        -0.17761
C         34.09276        56.34266         0.71513
C         35.22152        58.50324         0.11654
C         34.07342        59.20766         0.46731
C         35.20879        61.34323         0.13610
C         34.03921        60.65738         0.39544
C         35.16669        62.79895        -0.22391
C         34.00843        63.50962         0.42672
C         35.30701        65.67206         0.46716
C         34.12412        64.90313         0.97978
C         35.33397        67.04684         0.62907
C         34.13203        67.80261         0.82550
C         35.36494        69.95606         0.69654
C         34.18069        69.24145         0.71289
C         35.37311        71.35457         0.08590
C         34.10136        72.11692         0.34627
C         35.37083        74.27653        -0.02061
C         34.12254        73.58532         0.18805
C         37.75208        44.18338         0.00105
C         37.71015        45.59063         0.02625
C         36.49794        46.31294         0.23199
C         37.62639        48.42822        -0.49320
C         36.44465        47.71016         0.12485
C         37.75876        49.86758        -0.00035
C         36.45432        50.62391         0.04198
C         37.71990        52.74536        -0.08323
C         36.48330        51.99476         0.09615
C         37.69673        54.18348        -0.05173
C         36.46953        54.90198         0.08005
C         37.64932        57.02500        -0.29439
C         36.45510        56.30055        -0.09242
C         37.64509        58.47137        -0.32665
C         36.45807        59.17851        -0.08676
C         37.70989        61.35521        -0.35953
C         36.53102        60.64318         0.25810
C         37.69629        62.81609        -0.35977
C         36.50227        63.48893        -0.12734
C         37.77425        65.67628        -0.26018
C         36.46464        64.95519        -0.10579
C         37.89084        67.04285         0.30575
C         36.63807        67.75019         0.70984
C         37.93960        69.96805         0.52180
C         36.65934        69.24714         0.83726
C         37.90867        71.47225         0.37964
C         36.61000        72.18663         0.36239
C         37.84882        74.29226        -0.18560
C         36.60288        73.62593        -0.02833
C         40.29978        39.96272         0.27972
C         40.27965        41.34295         0.08254
C         39.02456        42.05023         0.00114
C         40.24269        44.19630         0.21332
C         38.96378        43.43221        -0.03815
C         40.18914        45.56901        -0.45314
C         38.94205        46.35482        -0.13941
C         40.19965        48.46703        -0.45578
C         38.94397        47.70854        -0.33416
C         40.19432        49.90114        -0.54776
C         38.88006        50.62177        -0.74368
C         40.15278        52.78113        -0.48497
C         38.92238        52.07925        -0.35139
C         40.14527        54.20696        -0.43004
C         38.90715        54.90324        -0.27538
C         40.10006        57.05259        -0.55867
C         38.88465        56.32639        -0.36396
C         40.07506        58.47681        -0.70900
C         38.88238        59.18418        -0.54201
C         40.15865        61.35691        -0.65023
C         38.85577        60.63816        -0.61018
C         40.14991        62.80237        -1.06596
C         38.94454        63.53355        -0.54338
C         40.26364        65.62793        -0.48806
C         39.02435        64.91248        -0.41120
C         40.27855        67.06553        -0.37758
C         39.12178        67.77005        -0.02534
C         40.36386        69.93490        -0.22009
C         39.03309        69.24314        -0.26104
C         40.38001        71.42606         0.03263
C         39.05588        72.10149        -0.39554
C         40.32704        74.26530        -0.26038
C         39.09200        73.61066        -0.23029
C         42.78907        35.75635         0.94647
C         42.76225        37.13163         0.62397
C         41.54296        37.84909         0.58593
C         42.76266        39.91110         0.06672
C         41.52120        39.22693         0.32777
C         42.74209        41.33665        -0.15597
C         41.53440        42.05024        -0.07948
C         42.65724        44.18083        -0.59848
C         41.52957        43.49511        -0.19584
C         42.66245        45.67189        -0.92672
C         41.49683        46.32376        -0.16719
C         42.69712        48.54365        -0.10173
C         41.41684        47.80569        -0.38020
C         42.66629        49.97224        -0.56380
C         41.40615        50.63463        -0.60399
C         42.62010        52.78294        -0.75111
C         41.38566        52.07432        -0.65104
C         42.61463        54.23001        -0.67498
C         41.36513        54.93374        -0.54211
C         42.57600        57.10011        -0.59928
C         41.33135        56.35523        -0.55918
C         42.60020        58.42841        -0.88873
C         41.32713        59.15965        -1.21278
C         42.70579        61.34162        -1.02733
C         41.42990        60.60923        -0.79215
C         42.69371        62.79073        -0.98515
C         41.47343        63.50619        -0.85648
C         42.71824        65.63742        -0.81210
C         41.48524        64.91696        -0.71961
C         42.72829        67.06883        -0.74038
C         41.51403        67.78529        -0.56029
C         42.81260        69.92218        -0.51528
C         41.53397        69.22358        -0.45435
C         42.83520        71.33141        -0.42763
C         41.55104        72.09096        -0.67952
C         42.79197        74.20463        -0.17569
C         41.58881        73.56872        -0.33137
C         45.22244        33.00570         1.52293
C         44.02711        33.67372         1.40136
C         45.24110        35.72817         0.74334
C         44.00055        35.05272         1.02281
C         45.23449        37.10296         0.39096
C         43.99959        37.81373         0.33438
C         45.22611        39.86841        -0.47863
C         43.97204        39.20299         0.03669
C         45.21136        41.37562        -0.37136
C         43.97914        42.03178        -0.39523
C         45.23177        44.21526        -0.95255
C         43.91517        43.44339        -0.80557
C         45.23105        45.74121        -1.11027
C         43.95345        46.41925        -0.65151
C         45.17609        48.55439        -0.60797
C         43.94227        47.77700        -0.50331
C         45.13475        49.93628        -0.71982
C         43.87614        50.67265        -0.72670
C         45.08067        52.90187        -1.21303
C         43.84974        52.08819        -0.85318
C         45.07195        54.26243        -0.55418
C         43.82864        54.93275        -0.55856
C         45.08411        57.09980        -0.41470
C         43.80191        56.37141        -0.13070
C         45.09706        58.43397        -0.68012
C         43.89002        59.13240        -1.24452
C         45.16150        61.32366        -1.09398
C         43.89798        60.63691        -1.03895
C         45.17884        62.77487        -1.19444
C         43.92484        63.49418        -1.07755
C         45.15521        65.63685        -1.15905
C         43.93593        64.92545        -1.03392
C         45.18424        67.03869        -0.98004
C         43.97220        67.76780        -0.79867
C         45.26971        69.89296        -0.76196
C         44.02703        69.19248        -0.64434
C         45.25281        71.29860        -0.64414
C         44.05498        72.00844        -0.39567
C         45.33053        74.17871        -0.32868
C         44.07788        73.44882         0.06216
C         46.44637        33.67122         1.25793
C         47.78559        35.64832         0.52864
C         46.46641        34.99894         0.86876
C         47.73245        37.15645         0.47667
C         46.48869        37.82908         0.26108
C         47.68251        39.96540         0.09259
C         46.48804        39.21359         0.01302
C         47.67386        41.39776        -0.04619
C         46.43947        42.10948        -0.33946
C         47.60776        44.28629        -0.17402
C         46.45046        43.52487        -0.48783
C         47.64521        45.70518        -0.26990
C         46.45749        46.43797        -0.56979
C         47.66979        48.57492        -0.44624
C         46.44038        47.83794        -0.55512
C         47.66465        49.97753        -0.57311
C         46.40486        50.67430        -0.90722
C         47.70034        52.98465        -0.89022
C         46.41755        52.15582        -1.12024
C         47.45979        54.06857         0.18075
C         46.25622        54.91932        -0.18480
C         47.54871        57.00482        -0.29750
C         46.31222        56.34414        -0.20023
C         47.57690        58.40627        -0.86638
C         46.36448        59.21052        -0.42863
C         47.62807        61.26956        -1.10688
C         46.37589        60.62123        -0.97534
C         47.65145        62.68603        -1.65517
C         46.37729        63.44699        -1.37054
C         47.65987        65.56048        -1.00320
C         46.41026        64.93491        -1.61267
C         47.56991        66.88077        -0.53886
C         46.44486        67.71681        -0.84934
C         47.71524        69.85185        -1.27256
C         46.53231        69.16308        -0.95021
C         47.68143        71.33719        -1.45387
C         46.43439        72.07756        -1.05963
C         47.72956        74.20033        -0.78908
C         46.46072        73.52950        -0.73839
C         48.90874        37.87940         0.53774
C         50.10791        40.03917         0.52361
C         48.91306        39.29796         0.40104
C         50.10128        41.44375         0.44561
C         48.85266        42.11083         0.20903
C         50.11126        44.33575         0.44979
C         48.79201        43.57236         0.32739
C         50.11707        45.75511         0.08056
C         48.88396        46.42942        -0.10617
C         50.13844        48.52850        -0.34103
C         48.90258        47.84731        -0.28047
C         50.13232        49.96895        -0.60321
C         48.87116        50.72421        -0.55085
C         50.10096        52.81943        -0.15336
C         48.90670        52.13136        -0.52471
C         50.04425        54.21871         0.20272
C         48.72963        54.91425         0.53271
C         49.95698        57.06985         0.05528
C         48.75957        56.34248        -0.00438
C         50.02506        58.47009        -0.26667
C         48.84807        59.17100        -0.60028
C         50.13837        61.23836        -1.03939
C         48.83222        60.56480        -0.86037
C         50.18532        62.70257        -1.41125
C         48.91998        63.46902        -1.33854
C         50.18419        65.59918        -1.20941
C         48.91125        64.84781        -1.17957
C         50.22826        67.01134        -1.38998
C         49.16967        67.76873        -2.12726
C         50.22797        69.92815        -1.25089
C         49.01393        69.29085        -1.90737
C         50.21395        71.36616        -1.12576
C         48.99447        72.13406        -1.60389
C         50.14848        74.20942        -0.75554
C         48.92300        73.52862        -0.98314
C         51.32711        42.18517         0.51219
C         52.58557        44.30823         0.29731
C         51.37482        43.57351         0.40821
C         52.59572        45.70303         0.14617
C         51.35519        46.43115        -0.00232
C         52.62538        48.55376        -0.13483
C         51.37441        47.84416        -0.20382
C         52.64925        49.96852        -0.04239
C         51.44435        50.72974        -0.38629
C         52.50709        52.78808         0.46301
C         51.34407        52.14083        -0.01821
C         52.47745        54.23244         0.56143
C         51.21197        54.92045         0.42546
C         52.44013        57.13362         0.46677
C         51.14372        56.40974         0.70556
C         52.48549        58.49401         0.22278
C         51.27841        59.19585        -0.17527
C         52.57677        61.27852        -0.38202
C         51.34880        60.54976        -0.52000
C         52.49304        62.78722        -0.29243
C         51.53047        63.42804        -1.31632
C         52.59392        65.61507        -0.77437
C         51.39930        64.90952        -1.02488
C         52.56601        67.02194        -0.70480
C         51.39832        67.73231        -1.04898
C         52.59771        69.88205        -0.59835
C         51.37606        69.19357        -0.96015
C         52.53915        71.33484        -0.20180
C         51.33598        72.06182        -0.72798
C         52.58645        74.19610        -0.45429
C         51.35837        73.51259        -0.66540
C         53.82583        46.43800         0.09804
C         55.15457        48.56903        -0.12514
C         53.84825        47.81408        -0.00611
C         55.08867        49.98737         0.41731
C         53.79837        50.67475         0.40000
C         54.90340        52.74806         1.24073
C         53.70648        52.05078         0.71747
C         54.90746        54.25018         1.13452
C         53.65021        54.94130         0.77959
C         54.96584        57.15901         0.94105
C         53.63447        56.40391         0.89099
C         54.95480        58.53872         0.45827
C         53.76363        59.19552         0.18162
C         55.04204        61.33329        -0.05935
C         53.77527        60.61630        -0.11598
C         55.04269        62.77764        -0.22330
C         53.83680        63.47804        -0.37609
C         55.07392        65.57345        -0.57209
C         53.85126        64.88389        -0.55909
C         55.05225        67.03938        -0.75867
C         53.80941        67.73346        -0.25449
C         55.06195        69.93406        -0.43872
C         53.80377        69.21675        -0.49721
C         55.02799        71.38568        -0.46142
C         53.83866        72.06975        -0.42132
C         55.04308        74.22878        -0.26904
C         53.81760        73.52560        -0.40354
C         56.23120        50.64629         0.73171
C         57.45470        52.83728         1.17240
C         56.22423        51.98728         1.42073
C         57.46031        54.19928         1.02795
C         56.18665        54.93352         0.68105
C         57.46883        57.14938         1.22451
C         56.20968        56.40222         0.94394
C         57.49717        58.51433         0.57859
C         56.25540        59.13996        -0.00392
C         57.50727        61.32980         0.12103
C         56.24329        60.64549         0.08018
C         57.50933        62.77880        -0.00192
C         56.29076        63.48067        -0.23832
C         57.56170        65.61576        -0.38910
C         56.31272        64.89726        -0.41751
C         57.59407        67.06374        -0.49578
C         56.33526        67.80503        -0.71667
C         57.53889        69.97196        -0.32376
C         56.28694        69.26158        -0.45797
C         57.54758        71.38679        -0.31883
C         56.30889        72.12756        -0.76012
C         57.49273        74.23647        -0.09430
C         56.28071        73.57135        -0.31996
C         58.68628        54.95732         0.99753
C         59.93606        57.08426         0.92099
C         58.72687        56.34819         0.97663
C         59.95022        58.49268         0.80754
C         58.69011        59.20001         0.52716
C         60.02176        61.34960         0.11940
C         58.70348        60.61657         0.25004
C         59.90388        62.75805         0.69525
C         58.70820        63.49841         0.13630
C         60.04346        65.58175        -0.05605
C         58.74110        64.88940        -0.08678
C         60.04039        67.07325        -0.19250
C         58.75618        67.79526        -0.28980
C         59.97520        69.97726        -0.06192
C         58.76357        69.24729        -0.20835
C         59.96667        71.38085        -0.02363
C         58.75112        72.09611        -0.14854
C         59.93208        74.25437         0.17997
C         58.74005        73.55800        -0.06019
C         61.15034        59.22042         0.90047
C         62.35475        61.35072         1.03264
C         61.20655        60.62606         0.73769
C         62.40581        62.78844         0.92899
C         61.21424        63.50346         0.63481
C         62.42891        65.61211         0.79531
C         61.23966        64.89445         0.50651
C         62.39202        67.09197         0.88171
C         61.18471        67.82478         0.39655
C         62.35282        69.96054         0.80943
C         61.31458        69.26132        -0.05169
C         62.34681        71.44899         0.78173
C         61.28154        72.13205        -0.04979
C         62.34939        74.26967         0.65773
C         61.18909        73.60134         0.29975
C         63.60209        63.51324         1.12722
C         64.90297        65.63697         1.44985
C         63.61315        64.91507         1.10666
C         64.86950        67.14767         1.30483
C         63.66048        67.84144         1.04738
C         64.81162        69.99864         1.26904
C         63.63427        69.24938         1.04333
C         64.80097        71.44565         1.24303
C         63.61607        72.16728         0.97956
C         64.80360        74.28624         1.11662
C         63.60614        73.58910         0.89347
C         66.03829        67.87585         1.50687
C         67.23283        70.03756         1.69950
C         66.04347        69.30094         1.48944
C         67.23858        71.45187         1.67739
C         66.01599        72.16228         1.43614
C         67.23560        74.28638         1.59412
C         66.01330        73.59195         1.38342
C         68.43331        72.19395         1.87985
C         68.41756        73.58815         1.83971
O         50.24762        61.68565        -2.48520
O         55.63150        67.49182        -2.00687
O         46.72534        71.78010        -2.48684
O         61.83598        70.71786         1.94658
O         38.77761        71.85979        -1.77480
O         61.33391        67.59521         1.82119
O         46.54992        51.28629        -2.29141
O         44.58573        43.61266        -2.12101
O         54.15392        56.91207         2.18148
O         37.49520        67.10571         1.72830
O         40.92715        60.97283         0.54245
O         48.59557        67.27062        -3.08735
O         37.63539        69.60918         1.88987
O         54.74881        53.60961         2.43629
O         37.38376        72.06668         1.60840
O         36.88519        65.57148        -1.41073
O         49.28160        44.06106         1.62936
O         50.96332        50.39679        -1.73675
O         32.26809        58.90729         2.13713
O         60.36711        66.24359        -1.34633
O         31.47536        73.05381        -1.34831
H         31.38412        73.85087        -1.91058
O         53.88359        67.58055         1.20855
H         53.02994        67.88511         1.58328
O         47.49375        58.25332        -2.31195
H         48.20585        57.64574        -2.60117
O         44.00469        58.97092        -2.70089
H         43.15321        59.29157        -3.08563
O         55.51050        48.62404        -1.52385
H         54.77999        49.06696        -2.00367
O         45.22226        39.61213        -1.93663
H         44.46121        40.10133        -2.31685
O         61.76439        72.05275        -1.43893
H         61.15202        72.57834        -1.99723
O         57.46262        57.42358         2.68344
H         58.29070        57.90971         2.88677
O         41.90014        46.17633         1.23426
H         41.14011        45.82785         1.76104
O         34.65775        56.88957        -1.54996
H         35.35091        57.24659        -2.14368
O         40.00219        45.30209        -1.86947
H         40.85086        45.41726        -2.36211
O         48.00838        53.65965        -2.12597
H         47.94660        52.99097        -2.84277
O         48.96456        69.79843        -3.26426
H         48.49805        69.11065        -3.79656
O         56.40469        72.17582        -2.23022
H         56.31077        71.25640        -2.56035
O         41.36636        71.99454        -2.10741
H         40.37619        72.02118        -2.28390
O         60.29699        61.48534        -1.30013
H         60.35451        60.58677        -1.68637
O         38.64583        50.67167        -2.17887
H         38.27070        49.79894        -2.45739
O         38.59492        69.29653        -1.66292
H         38.66851        70.27876        -1.94991
O         34.40958        64.70450         2.43173
H         34.45310        65.59227         2.84872
O         44.15287        73.35553         1.54118
H         43.31568        72.94472         1.84987
O         47.69913        62.54528        -3.12700
H         48.54645        62.07192        -3.32413
O         39.96231        62.74325        -2.52606
H         39.79072        63.65455        -2.84656
O         59.62345        62.57574         2.11849
H         59.62152        63.45780         2.54576
O         46.47042        59.35192         1.02055
H         45.61189        59.67618         1.36452
O         48.51373        67.39471         0.31441
H         48.24859        68.29911         0.58179
O         34.56554        56.52513         2.09162
H         33.78408        56.58294         2.68112
O         52.34619        71.29559         1.27127
H         53.17267        70.93490         1.65905
O         36.83116        60.68209         1.71214
H         36.11000        60.20002         2.17218
O         42.50782        45.81577        -2.36759
H         43.40440        45.67164        -2.76951
O         43.71607        56.36059         1.34070
H         42.90171        55.87006         1.58313
O         50.93258        56.56357         2.16821
H         51.78473        56.35675         2.61365
O         35.41657        71.11566        -1.36990
H         36.35288        71.14606        -1.67642
O         45.26003        45.99218        -2.56595
H         45.82527        45.30426        -2.97860
O         26.86288        60.91838        -0.15953
H         27.22683        61.17297        -1.03195
O         56.32114        51.63698         2.83909
H         55.96090        52.40955         3.33509
O         48.69320        55.04615         1.98221
H         49.44922        55.62865         2.26177
O         52.17023        63.36043        -2.60868
H         51.75025        62.61712        -3.10230
O         42.78141        48.67014         1.36807
H         42.57250        47.76695         1.72186
O         56.06738        54.82522        -0.79983
H         56.85010        55.26901        -1.19285
O         46.47574        65.10456        -3.06634
H         47.05788        64.38894        -3.41890
O         32.79647        69.78957        -1.13297
H         33.58250        70.24165        -1.52338
O         41.21963        59.20864        -2.68234
H         41.03921        58.29664        -2.99619
O         44.89815        53.22491        -2.63049
H         45.21525        52.43591        -3.12969
O         56.33857        58.82565        -1.45612
H         55.67262        59.38428        -1.91277
O         35.50183        52.68824         2.10332
H         34.80270        53.24182         2.51355
O         49.20129        72.40554        -3.01277
H         48.32060        72.32640        -3.44715
O         29.12077        69.49079         2.90727
H         28.21121        69.24809         3.18837
O         61.82370        69.23890        -1.40730
H         61.87072        70.17728        -1.72003
O         65.98691        65.09128         0.68137
H         65.78905        65.22938        -0.26753
O         34.87257        62.82017        -1.68608
H         33.95351        62.49625        -1.80304
O         30.48726        67.10585         2.94912
H         30.18199        67.99874         3.25475
O         26.75716        72.18200        -1.21119
H         26.79125        71.24968        -1.51351
O         40.56249        71.62427         1.45978
H         39.72150        71.40852         1.92092
O         47.06902        53.30575         1.34478
H         47.34663        53.83387         2.13192
O         40.24245        44.32832         1.67466
H         40.27369        43.42285         2.05047
O         38.17255        49.74386         1.38858
H         38.01855        50.60364         1.83460
O         51.91433        63.06997         1.01706
H         52.51739        62.71027         1.70120
O         48.81926        35.19894         1.41407
H         48.57833        35.46544         2.32466
O         31.81652        72.66365         2.27287
H         31.78282        71.87447         2.85296
O         37.32914        48.42633        -1.92967
H         37.37495        47.49524        -2.23639
H         23.03583        75.40021         0.89007
H         25.50399        75.38272         0.97728
H         27.97138        75.37884         0.88535
H         30.38294        75.36639         0.29042
H         32.91625        75.33744        -0.11645
H         35.33018        75.35916        -0.21934
H         37.84136        75.39024        -0.28793
H         40.35162        75.36186        -0.13900
H         42.81316        75.29006         0.01915
H         45.38557        75.25257        -0.09022
H         47.76003        75.26009        -0.48896
H         50.13019        75.29153        -0.55180
H         52.57416        75.29550        -0.40580
H         55.01544        75.31499        -0.09137
H         57.47926        75.31974         0.10323
H         59.88828        75.34333         0.33662
H         62.31571        75.35970         0.80969
H         64.81162        75.38563         1.07958
H         67.24201        75.38522         1.55844
H         22.03774        69.51209         0.85295
H         20.82564        71.68307         0.92919
H         20.87586        74.16716         0.95258
H         24.50680        65.22672         0.80129
H         23.27682        67.35575         0.84248
H         27.30321        61.08287         1.83699
H         25.71361        63.08700         0.79241
H         29.37464        56.54266         0.60024
H         28.11522        58.75514         0.61084
H         31.81397        52.19292         0.43276
H         30.61447        54.36884         0.65710
H         34.34753        47.92233         0.61614
H         33.05972        50.02021         0.38729
H         36.79978        43.63056         0.03659
H         35.58975        45.75873         0.51663
H         39.35066        39.42172         0.41011
H         38.09752        41.45687        -0.02285
H         41.84490        35.23618         1.16638
H         40.59962        37.31676         0.77811
H         45.23875        31.94868         1.82338
H         43.07590        33.16106         1.60480
H         47.39619        33.12753         1.36032
H         48.08470        35.29270        -0.49939
H         49.85816        37.35145         0.71013
H         51.05394        39.51045         0.71179
H         52.26961        41.61984         0.56891
H         53.54201        43.76576         0.33994
H         54.77278        45.88237         0.17398
H         55.97314        48.00576         0.38773
H         57.19671        50.12106         0.66677
H         58.41654        52.33013         1.35395
H         59.63595        54.39836         1.00342
H         60.89512        56.54385         0.93881
H         62.07039        58.68454         1.18265
H         63.25224        60.81891         1.38537
H         64.53562        62.97346         1.34307
H         65.14585        65.40927         2.52494
H         66.97922        67.34044         1.70114
H         68.17571        69.49823         1.87534
H         69.37420        71.65742         2.06819
H         69.35185        74.14474         1.99955
