         324
 CSIRO Nanostructure Databank - Neutral Graphene Oxide Data Set
C          1.23368         3.46642        -1.46153
C          0.01791         4.13657        -1.40671
C          1.13645         6.24301        -0.85208
C         -0.03773         5.50519        -1.11926
C          1.09702         7.70405        -0.68121
C         -0.06128         8.44754        -0.72816
C          1.06435        10.61278        -0.37076
C         -0.07418         9.86947        -0.55445
C          1.02354        12.04908         0.02738
C         -0.06233        12.89746        -0.47962
C          1.18912        14.94636         0.03926
C          0.01109        14.25258        -0.42860
C          1.18329        16.46577        -0.04331
C         -0.08614        17.08037         0.48870
C          1.08663        19.17466         0.96785
C         -0.12306        18.36673         0.89038
C          1.06701        20.55641         1.01038
C         -0.15317        21.33252         0.91380
C          1.09470        23.28871         0.06295
C         -0.14821        22.62472         0.50529
C          1.10999        24.79949        -0.31931
C         -0.10334        25.62945        -0.23517
C          1.21351        27.70118        -0.32170
C         -0.03810        26.98932        -0.27577
C          1.22505        29.04675        -0.76638
C          3.70072         3.49286        -1.24070
C          2.44128         4.16256        -1.19379
C          3.62118         6.21768        -0.47192
C          2.37211         5.54935        -0.86965
C          3.61562         7.70566        -0.23014
C          2.37844         8.44061        -0.62208
C          3.60087        10.65708        -0.02479
C          2.37733         9.96299        -0.47728
C          3.61793        12.01736         0.28747
C          2.32386        12.75977         0.40947
C          3.58157        14.93366         0.69910
C          2.32367        14.23955         0.35460
C          3.71400        16.41455         0.36409
C          2.40464        17.13755         0.55822
C          3.57002        19.12872         1.47565
C          2.35364        18.44123         0.94905
C          3.62226        20.62458         1.35718
C          2.33536        21.33470         1.08154
C          3.57511        23.30811         0.20593
C          2.37306        22.66735         0.43287
C          3.58672        24.71171        -0.12497
C          2.41287        25.47164        -0.22525
C          3.62480        27.56100         0.11996
C          2.42264        26.92269        -0.14717
C          3.63467        29.66126        -0.54949
C          2.32722        29.86024        -1.06640
C          6.18331         3.52117        -1.18090
C          4.92729         4.17102        -1.05696
C          6.09828         6.31011        -0.73272
C          4.90985         5.57133        -0.74916
C          6.05054         7.77034        -0.61714
C          4.88836         8.44591        -0.35578
C          6.09566        10.68973        -0.15480
C          4.87613         9.87389         0.15342
C          6.10590        12.05199         0.13857
C          4.86255        12.71244         0.42537
C          6.12075        14.95234         0.51020
C          4.86534        14.15653         0.72277
C          6.12526        16.35751         0.99406
C          4.92720        17.01984         1.04850
C          6.16858        19.18354         1.78109
C          4.86567        18.39398         1.58159
C          6.10662        20.56910         1.14981
C          4.91538        21.22912         0.93913
C          6.11073        23.38019         0.48240
C          4.89223        22.53579         0.17059
C          6.14416        24.71834         0.16040
C          4.89298        25.38504        -0.25858
C          6.16683        27.56819         0.17957
C          4.89933        26.90815        -0.10559
C          6.12123        29.63972        -0.61293
C          4.85050        30.11332        -1.07488
C          8.63517         3.43643        -1.12673
C          7.39963         4.18811        -0.94921
C          8.55672         6.41000        -0.68577
C          7.36027         5.62342        -0.74810
C          8.56646         7.83157        -1.09454
C          7.26645         8.55520        -0.96360
C          8.60769        10.69539        -0.44739
C          7.30327        10.03322        -0.66596
C          8.57719        12.07057         0.00452
C          7.39127        12.74354         0.22116
C          8.63857        14.90657         0.88034
C          7.41903        14.21266         0.44088
C          8.64834        16.31086         1.10405
C          7.40109        17.04075         1.18277
C          8.64436        19.15619         1.29880
C          7.42005        18.43085         1.35314
C          8.61365        20.60133         1.20051
C          7.37514        21.25207         1.04071
C          8.64179        23.48894         0.92536
C          7.31492        22.71736         0.99112
C          8.60683        24.84444         0.37041
C          7.37905        25.47888         0.14072
C          8.59620        27.63082        -0.34431
C          7.37496        26.91415        -0.04451
C          8.56495        29.00429        -0.88382
C          7.34569        29.73447        -1.24132
C         11.18684         3.41256        -0.68809
C          9.81778         3.78163        -0.49664
C         11.04092         6.47409        -0.36252
C          9.74883         5.88462        -0.21374
C         11.11047         7.86840        -0.63222
C          9.86668         8.60149        -0.99222
C         11.08738        10.78713        -0.63687
C          9.80295        10.04129        -0.64019
C         11.12615        12.13283        -0.04494
C          9.86062        12.67334         0.43999
C         11.14908        14.78125         1.22538
C          9.83872        14.09287         1.01986
C         11.12958        16.26925         1.50460
C          9.87220        17.02755         1.34148
C         11.11771        19.22289         1.43124
C          9.88826        18.45148         1.34514
C         11.09975        20.60984         1.28995
C          9.86424        21.33439         1.13861
C         11.11578        23.49288         0.80488
C          9.90183        22.73392         0.93084
C         11.05854        24.87679         0.48272
C          9.83191        25.54773         0.19786
C         11.08086        27.52941        -0.64353
C          9.79977        26.91581        -0.24389
C         11.05544        28.97205        -1.14629
C          9.75183        29.63584        -1.20160
C         13.55765         3.60435        -0.22746
C         12.26581         4.23381        -0.30392
C         13.42977         6.41487         0.03536
C         12.22293         5.69363        -0.16933
C         13.46874         7.84160        -0.01952
C         12.32753         8.54671        -0.49473
C         13.72567        10.72243        -0.58989
C         12.38765        10.00844        -0.73535
C         13.62063        12.16123        -0.10872
C         12.35017        12.83511         0.13031
C         13.53110        14.99263         0.46769
C         12.35713        14.15139         0.67043
C         13.64121        16.35978         0.99128
C         12.43566        17.01074         1.52113
C         13.68618        19.20889         1.28281
C         12.42095        18.52494         1.59961
C         13.70159        20.66258         1.43345
C         12.35348        21.40181         1.42576
C         13.60709        23.50340         0.95998
C         12.38595        22.83200         1.03888
C         13.59227        24.98339         0.88565
C         12.28189        25.69524         0.59357
C         13.49584        27.75736        -0.19353
C         12.33352        27.02024        -0.06742
C         13.46610        29.12902        -0.67296
C         12.29497        29.73903        -1.01884
C         15.97574         3.54819         0.09499
C         14.70838         4.25049         0.19819
C         15.59696         6.40739         1.08111
C         14.62057         5.68893         0.43329
C         15.76166         7.85596         1.01811
C         14.65145         8.58787         0.37912
C         16.03158        10.62327         0.38275
C         14.77215         9.95065         0.18205
C         16.07576        12.05130         0.22811
C         14.82871        12.79760         0.09921
C         16.09367        14.97228         0.43857
C         14.86013        14.26417         0.14575
C         16.09622        16.35628         0.64825
C         14.84230        17.05847         0.88088
C         16.11802        19.21278         0.89673
C         14.86749        18.50205         1.04543
C         16.12182        20.63999         0.95176
C         14.94308        21.38530         1.12830
C         16.08874        23.51909         0.73456
C         14.90121        22.82003         0.99637
C         16.02193        24.88422         0.16375
C         14.85507        25.72284         0.56085
C         16.00898        27.75446        -0.55842
C         14.82029        27.16096         0.12487
C         15.96181        29.11915        -0.95535
C         14.74277        29.94278        -0.60756
C         18.42132         3.44628        -0.33615
C         17.24930         4.05371         0.27918
C         18.50391         6.18616         0.58086
C         17.49703         5.33357         0.91947
C         18.54698         7.65488         1.04609
C         17.19519         8.47451         0.99578
C         18.48096        10.58436         0.49782
C         17.23521         9.90208         0.57912
C         18.52815        12.00931         0.39704
C         17.29926        12.72846         0.29248
C         18.62710        14.91564         0.35789
C         17.33178        14.20423         0.21491
C         18.61260        16.30480         0.96362
C         17.33545        17.08156         0.73248
C         18.62655        19.19431         0.63601
C         17.35231        18.48439         0.78561
C         18.64654        20.60530         0.56908
C         17.41605        21.34290         0.93498
C         18.64430        23.56097         0.36220
C         17.39726        22.86139         0.84224
C         18.55746        24.95379        -0.22897
C         17.21028        25.56607        -0.41377
C         18.31780        27.58518        -1.37979
C         17.17869        27.01596        -0.73820
C         18.23504        28.93684        -1.83481
C         17.05344        29.68865        -1.58826
C         19.58203         4.12997        -0.43056
C         20.65952         6.38922        -0.68543
C         19.79489         5.50389         0.15817
C         20.62131         7.73836        -0.49424
C         19.64204         8.40741         0.30189
C         20.92825        10.52510         0.26039
C         19.69762         9.82190         0.39033
C         20.97744        11.90143         0.34227
C         19.79847        12.68821         0.41518
C         21.04948        14.85633         0.60640
C         19.87531        14.12396         0.50556
C         21.04404        16.28024         0.55072
C         19.88459        17.03462         0.61000
C         21.03472        19.19544         0.20867
C         19.85133        18.47276         0.48087
C         21.02305        20.56974         0.06224
C         19.83299        21.31218         0.23457
C         20.87516        23.38841        -0.64529
C         19.82738        22.75395        -0.00105
C         20.81156        24.72490        -1.13270
C         19.66491        25.48695        -1.04487
C         20.56425        27.43320        -2.31657
C         19.52176        26.82873        -1.60774
C         20.46888        28.76122        -2.77351
C         19.33441        29.51143        -2.52878
O          9.67160         4.72382         0.55463
O          2.60622         9.29278        -1.78701
O         18.05949        14.76663        -0.97478
O          4.99250        26.22120        -1.44129
O          6.13552        28.88972         0.59889
O          2.94025        21.34474         2.44323
O          7.88100        23.36539         2.17701
O          6.77005        14.82792        -0.78328
O         16.28624        24.82046        -1.30603
O         17.60682        22.18873         2.12619
O          7.06340         9.51171        -2.04337
O         15.13284        26.79161         1.51557
O         16.53795         5.75152         1.86119
O          3.50874         6.81003         0.90201
O          9.31343         8.17824        -2.29579
O          1.40592        12.23861         1.43160
O         18.93038        24.74970         1.17459
O         14.05451        14.89074        -0.90403
O         13.05131        21.12903         2.67700
O         16.39948         8.39440         2.22272
O         11.18416        15.28841         2.60706
O          3.98373        18.55586         2.76215
O          4.17442        14.53364         1.97134
O         11.74566        10.52126        -1.94902
O          3.65464        28.86392         0.63102
O         11.16528        27.82666        -2.07890
O         12.58221        17.69484         2.80532
O          9.76031        12.92223         1.90387
O          1.04492        23.74408        -1.33184
O         12.84499        25.63514         1.95076
O          1.23504        16.75964        -1.49229
H          1.04498        17.71566        -1.60690
O         18.64908        16.06845         2.41401
H         18.70667        16.93944         2.86118
O          3.99160        16.49503        -1.06975
H          3.12552        16.46163        -1.54714
O         18.94575         7.64452         2.44316
H         18.11822         7.55526         2.97154
O         14.65139        31.10548        -1.42911
H         14.51481        30.81805        -2.35496
O          6.35263        19.38558         3.20214
H          5.45902        19.32915         3.61848
O          4.96628         9.64994         1.63326
H          4.77297        10.50635         2.07447
O         14.28676        10.80092        -1.93662
H         13.53573        11.01811        -2.53688
O         20.52937         5.30445         1.41874
H         20.39930         6.11918         1.95755
O          5.04219        22.14153        -1.24300
H          4.92599        22.94742        -1.79168
H          1.26922         2.39556        -1.70663
H         -0.91495         3.59141        -1.60724
H         -1.01623         6.00375        -1.11330
H         -1.03558         7.94928        -0.82629
H         -1.05636        10.36018        -0.49395
H         -0.91780        12.41728        -0.97598
H         -0.81669        14.84975        -0.83623
H         -1.01230        16.48852         0.46774
H         -1.07816        18.81432         1.20140
H         -1.11224        20.84504         1.14196
H         -1.09954        23.16360         0.39519
H         -1.08145        25.12940        -0.25520
H         -0.97011        27.57356        -0.31057
H          0.24283        29.43810        -1.08061
H          3.71515         2.41683        -1.47008
H          2.15865        30.72014        -1.73234
H          6.20023         2.44735        -1.41941
H          4.83147        30.71126        -1.99699
H          8.61094         2.57452        -1.81010
H          7.43807        30.43207        -2.08746
H         11.42100         2.40951        -1.07813
H          9.72657        30.68500        -1.53369
H         13.61424         2.53258        -0.47344
H         12.28031        30.82282        -1.20946
H         15.90902         2.55356        -0.37809
H         14.86951        30.30732         0.44985
H         18.32127         2.44691        -0.78636
H         17.00707        30.74197        -1.90185
H         20.45014         3.66312        -0.92029
H         21.40924         5.94239        -1.35392
H         21.32602         8.36908        -1.05730
H         21.86687         9.95932         0.18693
H         21.95755        12.39691         0.32109
H         22.02410        14.35131         0.65781
H         22.01988        16.77512         0.44412
H         21.98742        18.66292         0.09269
H         21.96787        21.08148        -0.16034
H         21.78633        22.82521        -0.88793
H         21.69072        25.10482        -1.67109
H         21.48985        26.87639        -2.51605
H         21.31397        29.20245        -3.31992
H         19.26655        30.55232        -2.87550
