         349
 CSIRO Nanostructure Databank - Neutral Graphene Oxide Data Set
C          1.19938         1.99452        -0.18065
C          1.13013         3.26288         0.38442
C          2.40493         1.32883        -0.38010
C          2.32796         4.02587         0.73528
C          1.16035         6.27344         0.12205
C          1.20669         7.61157        -0.06324
C          2.34591         5.55113         0.60910
C          2.41136         8.37803         0.20087
C          1.20749        10.54736        -0.10538
C          1.20217        11.95871        -0.19535
C          2.34167         9.82459         0.24221
C          2.31156        12.74608         0.09364
C          1.36377        14.80627        -0.98246
C          1.47045        16.16181        -1.41392
C          2.40869        14.11479        -0.38930
C          2.62678        16.89936        -1.26657
C          2.74566        18.30153        -1.62032
C          3.66208         1.86378         0.13038
C          3.65273         3.31840         0.69322
C          4.94131         1.32651        -0.30183
C          4.89887         4.10349         0.53383
C          3.65345         6.25954         0.53135
C          3.61150         7.70044         0.44972
C          4.84969         5.55577         0.59744
C          4.87703         8.46289         0.53242
C          3.47227        10.57777         0.82435
C          3.44713        12.09619         0.78245
C          4.82571         9.94690         0.78664
C          4.71469        12.86510         1.07638
C          3.72888        14.77707        -0.34453
C          3.83817        16.22747        -0.77689
C          4.76668        14.28341         0.61062
C          4.98065        17.03289        -0.31958
C          3.81811        19.04634        -1.26853
C          4.86381        18.53672        -0.30937
C          6.12923         2.02440        -0.07856
C          6.08848         3.44781         0.24558
C          7.37252         1.36916        -0.32161
C          7.33441         4.23655        -0.11089
C          6.13317         6.26457         0.97875
C          6.14667         7.75382         0.76061
C          7.38981         5.62807         0.46277
C          7.32918         8.45821         0.79977
C          6.03874        10.64325         1.36437
C          6.02600        12.17845         1.56046
C          7.34563         9.90617         1.15850
C          7.30245        12.81245         0.97393
C          6.05988        15.04358         0.69705
C          6.12106        16.42180         0.16141
C          7.35411        14.27726         0.95546
C          7.36360        17.13357         0.29554
C          6.20921        19.19263        -0.43468
C          7.37404        18.54427        -0.09031
C          8.61807         2.02600        -0.20720
C          8.58198         3.45137         0.22973
C          9.82239         1.44305        -0.56068
C          9.86082         4.17576         0.46695
C          8.58624         6.33508         0.50521
C          8.60044         7.77933         0.66604
C          9.85392         5.65792         0.33433
C          9.78153         8.51819         0.49476
C          8.60695        10.65243         0.98799
C          8.61926        12.13583         1.32878
C          9.76565         9.98081         0.61757
C          9.81340        12.87159         0.72942
C          8.59751        15.01989         0.70687
C          8.55650        16.43484         0.55602
C          9.80809        14.28135         0.61197
C          9.82849        17.21874         0.77294
C          8.64372        19.22164        -0.17533
C          9.83185        18.59290         0.13342
C         11.06135         2.28754        -0.74300
C         11.16225         3.36349         0.41501
C         12.30430         1.45336        -1.03874
C         12.34846         4.26364         0.16766
C         11.01001         6.38944         0.14733
C         11.01139         7.82985         0.18872
C         12.23560         5.66761        -0.35084
C         12.22676         8.53442         0.00353
C         10.97359        10.73159         0.34094
C         10.98167        12.12723         0.39136
C         12.18680        10.02657        -0.23251
C         12.20659        12.86136        -0.13447
C         11.05704        15.01620         0.41565
C         11.07603        16.43398         0.46392
C         12.25744        14.31147         0.25256
C         12.28164        17.13120         0.30791
C         11.08006        19.25932        -0.01165
C         12.29328        18.57907         0.13491
C         13.54473         1.62529        -0.46996
C         13.57619         3.69390         0.24838
C         14.83769         1.27599        -0.97095
C         14.80330         4.30637        -0.20336
C         13.52384         6.43023        -0.15898
C         13.47197         7.85594        -0.12378
C         14.73619         5.73154        -0.28418
C         14.71762         8.60234        -0.06830
C         13.48412        10.74017         0.10040
C         13.49599        12.12640         0.16472
C         14.71493        10.01532         0.13511
C         14.72620        12.84258         0.34129
C         13.49848        14.99426         0.29418
C         13.50989        16.41530         0.28904
C         14.73915        14.27693         0.36275
C         14.75605        17.11501         0.27300
C         13.53706        19.24028        -0.03478
C         14.75362        18.55458         0.04472
C         15.98719         2.09063        -0.73585
C         15.97347         3.53820        -0.47491
C         17.23849         1.46248        -0.94494
C         17.22667         4.24098        -0.61622
C         15.96640         6.49383        -0.52536
C         15.95430         7.92539        -0.15344
C         17.24259         5.72859        -0.65420
C         17.16988         8.60201         0.03496
C         15.95009        10.71790         0.28753
C         15.95424        12.14128         0.43642
C         17.18042         9.99651         0.25301
C         17.19649        12.85607         0.63489
C         15.96047        14.98976         0.50271
C         15.95464        16.41443         0.42649
C         17.20645        14.29080         0.68129
C         17.21707        17.20688         0.66389
C         15.99039        19.18837        -0.24449
C         17.20450        18.51293        -0.08317
C         18.47424         2.14490        -0.86614
C         18.43790         3.58120        -0.75329
C         19.71290         1.47572        -0.94708
C         19.72511         4.34475        -0.97629
C         18.50826         6.42189        -0.32746
C         18.45319         7.82809         0.23389
C         19.69134         5.74597        -0.41320
C         19.66236         8.63650        -0.17486
C         18.42880        10.72142         0.39378
C         18.40693        12.11693         0.65636
C         19.66272        10.07006         0.18892
C         19.68444        12.78426         0.94203
C         18.43870        15.03353         0.73737
C         18.49963        16.42296         0.50793
C         19.69190        14.30968         0.99655
C         19.74637        17.14227         0.38529
C         18.41517        19.04706        -0.52834
C         19.68620        18.46930        -0.27858
C         20.94890         2.16868        -0.72884
C         20.92877         3.56348        -0.53023
C         22.18881         1.45272        -0.69578
C         22.17579         4.24139        -0.02216
C         20.96408         6.41766        -0.20195
C         20.95362         7.89681        -0.25792
C         22.16576         5.75533        -0.16730
C         22.17521         8.61047         0.26942
C         20.89693        10.79001         0.20100
C         20.94304        12.10459         0.61836
C         22.15349        10.06089        -0.14624
C         22.26728        12.79777         0.85843
C         20.98251        15.00792         0.81485
C         20.95425        16.45330         0.68519
C         22.16869        14.30899         0.80175
C         22.23927        17.10321         0.67018
C         20.75852        19.13556        -0.93495
C         22.11414        18.96287        -0.58312
C         23.43825         2.12014        -0.63411
C         23.38899         3.63822        -0.75692
C         24.64040         1.42973        -0.60060
C         24.65091         4.33718        -0.31914
C         23.42608         6.50688        -0.20738
C         23.44564         7.89237        -0.08112
C         24.67995         5.82480        -0.42069
C         24.67588         8.63995        -0.05732
C         23.44160        10.80284        -0.27745
C         23.36153        12.33089        -0.16749
C         24.69494        10.03350        -0.06547
C         24.69824        12.97631         0.16628
C         23.48241        15.03503         0.95498
C         23.43637        16.46221         0.48734
C         24.71009        14.28778         0.51238
C         24.52188        17.01448        -0.42725
C         23.31102        19.15689        -1.25843
C         24.53518        18.49872        -0.83531
C         25.92823         2.03709        -0.08796
C         25.92003         3.57691        -0.17714
C         27.23049         1.38060        -0.50236
C         27.14302         4.30332        -0.66251
C         25.88292         6.50710        -0.32271
C         25.92757         7.91496        -0.05225
C         27.18955         5.84968        -0.70221
C         27.13794         8.55033         0.31602
C         25.99544        10.72106        -0.01079
C         25.98159        12.21990         0.02159
C         27.19817         9.98019         0.48334
C         27.15006        12.82824         0.77639
C         25.96352        15.08843         0.48197
C         25.88966        16.44888        -0.11907
C         27.24195        14.32193         0.47653
C         27.03943        17.06983        -0.51766
C         25.73929        19.08047        -1.17597
C         27.01644        18.43198        -1.03347
C         28.41174         2.05078        -0.54466
C         28.41192         3.52950        -0.73477
C         29.71183         1.39121        -0.62961
C         29.67912         4.30480        -0.52943
C         28.34973         6.41399         0.09157
C         28.31821         7.71585         0.51566
C         29.53428         5.54929         0.31151
C         29.43554         8.28168         1.30687
C         28.36327        10.64699         0.92606
C         28.48078        12.08296         0.72126
C         29.44063         9.80319         1.53122
C         29.64197        12.87394         0.66044
C         28.36476        14.84008        -0.36026
C         28.29756        16.29403        -0.70781
C         29.67024        14.03774        -0.36531
C         29.55440        17.03203        -0.93946
C         28.19583        19.05176        -1.40554
C         29.48019        18.39909        -1.31087
C         30.88468         2.06686        -0.60756
C         30.95830         3.54388        -0.46941
C         32.11372         4.16751         0.22736
C         30.74723         6.10024         0.99967
C         30.71810         7.53424         1.40667
C         32.03534         5.37309         0.81929
C         31.82152         8.15474         1.92148
C         30.73074        10.33769         2.01264
C         30.84841        12.62555         1.40987
C         31.81208         9.54456         2.26870
C         31.93188        13.46200         1.44620
C         30.90063        14.96000        -0.34149
C         30.79425        16.38235        -0.80673
C         32.06087        14.60246         0.53449
C         31.96723        17.09903        -1.10499
C         30.67635        19.09426        -1.58994
C         31.90156        18.43888        -1.49970
O         27.61871         3.79896        -1.95389
O          6.58845        14.96648         2.04270
O          3.09611        11.33573         1.99675
O         16.57457         6.26427        -1.86852
O         19.68755        13.51046         2.23604
O          9.01719         3.71163         1.59793
O         20.29277         8.39068        -1.46992
O         22.26396        18.49048         0.72835
O         26.24967        11.56992        -1.23208
O          5.04941         9.45942        -0.57691
O          2.16001         4.88862         1.91229
O         30.57241         4.33764        -1.67519
O          4.28453        13.97683         1.94856
O         30.82359        11.66474         2.42464
O          6.67111        10.01205         2.49991
O         25.22934         4.07198         1.02854
O         27.99441        15.22571        -1.71159
O          3.68650         2.19591         1.58155
O         26.88978        15.11056         1.65981
O          4.28379        15.09960        -1.65020
O         22.69106        10.31565        -1.47113
O         29.76588         5.26662         1.74174
O         32.08257        14.28006        -0.89329
O         13.66102         2.37811         0.71642
O         28.93349         8.85945         2.55273
O         12.07620        12.88428        -1.59612
H         11.98287        11.94035        -1.88928
O         22.06340         8.61551         1.72288
H         22.02558         7.68658         2.03478
O          6.17604         6.08957         2.44831
H          7.00487         6.50187         2.77426
O          7.32125         4.37757        -1.56957
H          6.57963         4.97077        -1.81192
O         22.73226        12.42200         2.18880
H         21.96563        12.50217         2.79846
O         27.40741         6.27071        -2.07567
H         27.72642         5.47815        -2.57480
O          4.34291        18.87183         1.03574
H          5.02284        18.60001         1.68898
O         19.88368         4.49893        -2.43817
H         19.14835         5.06817        -2.75487
O         10.83057         3.07379        -1.94633
H         10.65395         2.46334        -2.69169
O         11.32737         2.67433         1.65436
H         10.45334         2.69063         2.11348
O         18.60261         7.69771         1.68969
H         17.77713         7.31305         2.05244
O         22.95593        12.86225        -1.44139
H         22.77745        12.09738        -2.03906
O         24.16070        16.34499        -1.70256
H         24.95857        16.32514        -2.27471
O         22.30986         3.93662         1.39297
H         23.24467         4.09898         1.65238
O          9.88326        17.46619         2.22286
H          9.04180        17.89869         2.48056
O         12.04224        10.14533        -1.71177
H         12.84587         9.74790        -2.11223
O         25.88624         1.67659         1.33497
H         25.37071         2.38395         1.79103
O         17.19201        17.57177         2.09268
H         17.19338        16.73867         2.61065
O         12.06380         5.58904        -1.81157
H         11.93361         6.50323        -2.14103
O          6.08213        12.38344         2.98966
H          5.90889        13.34502         3.13600
O         26.77938        12.66642         2.17124
H         26.77763        13.57052         2.57609
O         29.72062        13.34408        -1.63319
H         30.67133        13.23223        -1.86027
O         23.26634         3.95581        -2.16026
H         22.35357         3.73662        -2.45126
O          8.81343        12.19419         2.78003
H          7.96460        11.89052         3.18965
O         23.65426        15.11088         2.42600
H         23.59569        14.18080         2.75241
H          0.26649         1.50879        -0.50162
H          0.15002         3.71758         0.57915
H          2.43093         0.39545        -0.95984
H          0.22143         5.72455        -0.03230
H          0.29851         8.13513        -0.38880
H          0.30570        10.02717        -0.45421
H          0.31069        12.42566        -0.63615
H          0.37856        14.32899        -1.07602
H          0.57096        16.64816        -1.81835
H          1.93829        18.74629        -2.22230
H          4.97210         0.33129        -0.76844
H          3.88080        20.10052        -1.57706
H          7.35229         0.31360        -0.63277
H          6.24656        20.25620        -0.71496
H          9.83705         0.38747        -0.87612
H          8.65653        20.25871        -0.54465
H         12.26458         0.90995        -1.99886
H         11.08613        20.32200        -0.29943
H         14.97955         0.34776        -1.54715
H         13.54121        20.32254        -0.23432
H         17.25075         0.37885        -1.13827
H         15.98813        20.21264        -0.64754
H         19.73030         0.38483        -1.08546
H         18.38768        20.00095        -1.07801
H         22.16959         0.35368        -0.74766
H         20.49527        19.83647        -1.74287
H         24.59570         0.32815        -0.57803
H         23.34254        19.78163        -2.16488
H         27.23862         0.27957        -0.47145
H         25.73449        20.10011        -1.59206
H         29.71845         0.29191        -0.68206
H         28.16620        20.08700        -1.77715
H         31.83391         1.51014        -0.63483
H         33.07767         3.63709         0.18764
H         32.94383         5.80972         1.25943
H         32.75975         7.60120         2.06146
H         32.71356         9.99247         2.70503
H         32.71264        13.29007         2.19809
H         32.78215        15.39687         0.82089
H         32.93990        16.59172        -1.05141
H         30.63283        20.15183        -1.88622
H         32.82892        18.97906        -1.73584
