         236
 CSIRO Nanostructure Databank - Neutral Graphene Oxide Data Set
C        -11.23533         0.70281         0.06485
C        -10.00497         1.46303         0.02145
C         -8.76298         0.71039         0.12406
C         -7.54501         1.55775         0.40548
C         -6.27486         0.76513         0.70014
C         -4.97209         1.55060         0.79011
C         -3.71728         0.67557         0.45790
C         -2.50971         1.46285         0.91733
C         -1.29086         0.80810         1.49182
C          0.03650         1.63059         1.51067
C          1.30307         0.76709         1.49421
C          2.55926         1.37767         0.91453
C          3.86003         0.63998         1.00961
C          5.13790         1.41048         0.96841
C          6.38093         0.71485         1.02594
C          7.60894         1.39011         0.77176
C          8.83763         0.72677         0.56796
C         10.02897         1.45658         0.26552
C         11.28688         0.74061         0.11229
C         -9.96870         2.83347        -0.16445
C         -8.73783         3.50192        -0.64344
C         -7.43676         2.69602        -0.60142
C         -6.09516         3.34704        -0.82009
C         -4.89894         2.72538        -0.17820
C         -3.60877         3.46680        -0.17451
C         -2.43108         2.80726         0.26833
C         -1.17125         3.41027         0.13805
C          0.10153         2.62563         0.34498
C          1.34790         3.49762         0.42688
C          2.57423         2.83534         0.66148
C          3.81248         3.51337         0.55553
C          5.05683         2.80697         0.75606
C          6.28576         3.61000         0.80170
C          7.62775         2.86554         0.77676
C          8.80631         3.58667         0.25296
C          9.99572         2.83845         0.05376
C         -8.56737         4.93664        -0.66347
C         -7.33748         5.56995        -1.13546
C         -6.04867         4.77374        -1.32754
C         -4.67115         5.47766        -1.53063
C         -3.52351         4.67849        -0.89130
C         -2.22949         5.14715        -1.12169
C         -1.08188         4.66393        -0.48657
C          0.04804         5.56215        -0.10868
C          1.33622         4.87548         0.17230
C          2.55817         5.62117         0.16032
C          3.79892         4.92543         0.30164
C          5.02465         5.67111         0.21040
C          6.27018         5.00863         0.36834
C          7.50927         5.69815         0.11066
C          8.73802         4.95343         0.01745
C         -7.17104         7.00156        -0.84427
C         -5.96048         7.63418        -0.77717
C         -4.68398         7.00875        -1.13662
C         -3.57803         7.84551        -1.19959
C         -2.22367         7.34974        -1.33843
C         -1.14293         7.88495        -0.67985
C         -0.01004         7.07024        -0.13386
C          1.27706         7.83235         0.23615
C          2.54350         7.03829        -0.03438
C          3.75762         7.74680        -0.14559
C          4.99011         7.07240        -0.01390
C          6.25974         7.87285         0.14001
C          7.49164         7.06712        -0.13760
C         -5.95318         8.99908        -0.24372
C         -4.87478         9.79580        -0.29063
C         -3.65004         9.35955        -1.03961
C         -2.36704         9.99493        -0.53401
C         -1.18222         9.32026        -0.40091
C          0.11512         9.97302        -0.33532
C          1.28801         9.25837        -0.27634
C          2.56214         9.87903        -0.51141
C          3.74528         9.17897        -0.44189
C          5.01267         9.81251        -0.77387
C          6.19447         9.19399        -0.57625
C        -11.21946        -0.66037         0.03360
C         -9.98236        -1.41278         0.02553
C         -8.74313        -0.66063         0.11181
C         -7.43674        -1.41835         0.00520
C         -6.26787        -0.72356         0.67783
C         -4.98857        -1.49242         0.76457
C         -3.74170        -0.76259         0.90964
C         -2.54499        -1.40282         1.14526
C         -1.30749        -0.72297         1.74408
C         -0.02564        -1.42261         1.33384
C          1.26617        -0.74281         1.54253
C          2.53413        -1.45456         1.21818
C          3.83861        -0.74654         1.64306
C          5.12099        -1.51225         1.29348
C          6.45159        -0.74947         1.44453
C          7.67005        -1.50454         0.84639
C          8.98920        -0.74111         0.91122
C         10.11245        -1.39679         0.13591
C         11.33920        -0.61331         0.06207
C         -9.96619        -2.79792        -0.01267
C         -8.74923        -3.56288         0.17695
C         -7.54937        -2.86030         0.40600
C         -6.36627        -3.56993         0.89535
C         -5.06444        -2.85593         0.95302
C         -3.81008        -3.63113         0.89273
C         -2.49513        -2.84920         0.92782
C         -1.20394        -3.53642         0.94452
C         -0.03319        -2.74076         0.88762
C          1.18686        -3.31041         0.25502
C          2.48512        -2.64399         0.55653
C          3.71801        -3.28950         0.05909
C          5.05197        -2.81445         0.57114
C          6.21301        -3.33534        -0.20465
C          7.56964        -2.76324         0.03610
C          8.75743        -3.33714        -0.77917
C         10.03972        -2.60787        -0.46225
C         -8.75259        -4.97968         0.08181
C         -7.54069        -5.73171         0.11487
C         -6.36368        -5.09706         0.74966
C         -5.06559        -5.86075         0.79894
C         -3.77583        -5.10862         1.10066
C         -2.46563        -5.81216         0.88596
C         -1.16361        -4.98941         0.79429
C         -0.02278        -5.62756         0.09386
C          1.14253        -4.76206        -0.23939
C          2.41021        -5.44920        -0.46023
C          3.64754        -4.70450        -0.45305
C          4.94435        -5.46373        -0.35573
C          6.01209        -4.52083        -0.83816
C          7.87494        -5.69109        -0.97750
C          8.85990        -4.84898        -0.52082
C         -7.42529        -7.01203        -0.40402
C         -6.08991        -7.61650        -0.75306
C         -4.93557        -7.12700         0.08463
C         -3.68697        -7.77922        -0.03532
C         -2.47755        -7.16255         0.35027
C         -1.14726        -7.88493         0.31222
C         -0.01772        -6.96909        -0.16855
C          1.14327        -7.61551        -0.83124
C          2.45798        -6.82391        -0.91765
C          3.75150        -7.55293        -1.01057
C          4.97727        -6.87826        -0.90345
C          6.22897        -7.60686        -0.94104
C          7.53503        -7.06095        -0.74636
C         -6.08801        -9.12137        -0.84146
C         -4.92498        -9.80979        -0.79821
C         -3.65612        -9.15458        -0.53389
C         -2.45451        -9.81862        -0.68683
C         -1.19180        -9.19229        -0.44884
C         -0.00354        -9.80655        -0.80642
C          1.23234        -9.08690        -0.86963
C          2.46030        -9.68702        -1.13609
C          3.69564        -8.97359        -1.17852
C          4.93190        -9.68047        -1.23811
C          6.13525        -9.02941        -1.09996
O         -8.20319         2.66504        -1.80032
O          5.15813        -5.63703         1.08337
H          6.05472        -6.01146         1.21959
O          7.82460        -2.81450         1.48710
O         -7.06611        -1.39528        -1.41968
H         -7.79634        -1.80803        -1.92835
O          5.15196        -2.78248         2.03647
O         -4.87145         2.09230         2.11062
H         -5.11635         1.38223         2.74329
O          1.29919         8.00062         1.68452
H          0.75487         7.26395         2.05813
O         -5.25980         2.38959        -1.56337
O         -2.28780         1.44304         2.36148
O         -4.41714         5.45424        -2.94553
H         -5.29262         5.48631        -3.39674
O         -2.03126         6.16798        -2.04477
O          8.53730        -3.05547        -2.17677
H          7.86974        -3.70057        -2.51185
O         -0.45966         6.33409         1.07535
O          9.41672        -0.73956         2.30348
H          8.60928        -0.55145         2.84379
O          3.10764         0.63488        -0.24890
O         -7.81846         2.26817         1.65426
H         -7.73784         1.60655         2.37824
O         -1.44758        -0.90160         3.17856
H         -2.01618        -0.16282         3.49808
O         -1.56228        -5.67213         2.06056
O         -3.57560         0.56931        -0.97498
H         -4.34861         0.09974        -1.35355
O          3.84893        -0.58290         3.06735
H          4.07334        -1.45179         3.46355
O         -5.80755        -7.12455        -2.13035
H         -6.36413        -7.64432        -2.74848
O          6.36376         8.21076         1.58157
H          6.32966         7.36667         2.08158
O          0.91079        -3.61356        -1.15010
O         -3.81082         9.89635        -2.40040
H         -3.05891         9.56779        -2.93743
O          0.08627         2.39490         2.71780
H          0.21988         1.76589         3.46006
O         -0.81381        -8.24849         1.68991
H         -0.98135        -7.44115         2.23822
O          0.23151         1.78367        -0.83321
H          0.29366         2.35125        -1.62965
O          6.72385        -0.72543         2.87606
H          6.68977        -1.66852         3.15969
O          3.70716        -3.54494        -1.37783
O         -6.66656        -4.46324         2.02276
O          7.09837         3.41895         2.01979
O          1.55288        -7.00320        -2.08886
O         -3.14199        -3.27585        -0.36635
O         -6.53874        -0.01456         1.93306
O          6.88842        -5.03903        -1.78491
O          1.40815         0.08171         2.76529
O         -4.50212        -5.74947         2.16388
O         -6.89692         5.04244        -2.47312
H         12.28787        -1.12909        -0.14975
H         12.20077         1.33777        -0.02201
H         10.91079         3.36312        -0.25832
H          9.64513         5.48982        -0.29814
H          8.43812         7.59491        -0.33141
H          7.13934         9.69314        -0.83828
H          4.97985        10.81999        -1.21667
H          2.57911        10.94447        -0.78956
H          0.15127        11.05892        -0.51676
H         -2.37343        11.09326        -0.46135
H         -4.90210        10.81177         0.12903
H         -6.88203         9.34794         0.23345
H         -8.06920         7.55140        -0.52326
H         -9.30184         5.55640        -0.12997
H        -10.90676         3.40930        -0.17674
H        -12.19155         1.24616         0.05513
H        -12.16557        -1.22143         0.01756
H        -10.91656        -3.34582        -0.09902
H         -9.68044        -5.48391        -0.22677
H         -8.31736        -7.48170        -0.84930
H         -7.03871        -9.63879        -1.04183
H         -4.91836       -10.89953        -0.95448
H         -2.45658       -10.84432        -1.08843
H         -0.01804       -10.84692        -1.16861
H          2.50181       -10.78395        -1.22064
H          4.91200       -10.77310        -1.36169
H          7.06910        -9.60988        -1.12517
H          8.33969        -7.76767        -0.49081
H          9.64847        -5.22233         0.14735
H         10.93976        -2.99394        -0.96839
