         234
 CSIRO Nanostructure Databank - Neutral Graphene Oxide Data Set
C          1.19585         1.92300         0.34114
C          1.16990         3.32736         0.34330
C          2.38621         1.23788         0.15702
C          2.33882         4.06819         0.11604
C          1.13288         6.37084         0.25858
C          1.18744         7.72951         0.28294
C          2.35371         5.55463         0.32112
C          2.42493         8.48409         0.23971
C          1.24787        10.66451         0.53061
C          1.25738        12.03923         0.60429
C          2.44419         9.92731         0.30999
C          2.46255        12.77738         0.48979
C          1.27680        14.96218         0.79850
C          1.29393        16.33750         0.96040
C          2.47013        14.21792         0.61188
C          2.51534        17.04439         0.93139
C          2.57099        18.47879         1.20234
C          3.59285         1.95045        -0.07900
C          3.54814         3.37535        -0.12182
C          4.83014         1.26036        -0.24026
C          4.77996         4.09028        -0.50832
C          3.64063         6.32585         0.13177
C          3.62821         7.79956         0.02818
C          4.81837         5.62048        -0.44814
C          4.85419         8.49539        -0.20309
C          3.66922        10.63419         0.18117
C          3.68753        12.07142         0.28870
C          4.88779         9.91643        -0.10412
C          4.91589        12.78769         0.19896
C          3.70974        14.91584         0.56523
C          3.70561        16.32269         0.71813
C          4.94791        14.19513         0.33670
C          4.97389        17.06512         0.81674
C          3.71228        19.19068         1.09991
C          4.96399        18.55529         0.54152
C          6.05229         1.94741        -0.41585
C          6.03943         3.36259        -0.53655
C          7.31349         1.26186        -0.33372
C          7.31415         4.08720        -0.51152
C          6.07670         6.35351        -0.47273
C          6.07523         7.77151        -0.45568
C          7.32889         5.61175        -0.50279
C          7.26121         8.49119        -0.77465
C          6.11364        10.60748        -0.30436
C          6.22867        12.04298         0.15876
C          7.25985         9.89479        -0.72369
C          7.33340        12.84293        -0.48749
C          6.18046        14.89698         0.16370
C          6.27534        16.32144         0.48092
C          7.32657        14.21995        -0.37823
C          7.41924        17.14902         0.12548
C          6.26479        19.16816         0.96405
C          7.46116        18.51980         0.58280
C          8.53787         1.93058        -0.46420
C          8.50863         3.33359        -1.07325
C          9.74555         1.28630        -0.15289
C          9.86449         4.11232        -0.98419
C          8.57280         6.32024        -0.83777
C          8.45778         7.74800        -1.34224
C          9.75798         5.62163        -0.75810
C          9.76214         8.52048        -1.21906
C          8.46928        10.63551        -1.18162
C          8.49739        12.13422        -1.07521
C          9.75627         9.88693        -1.25025
C          9.80592        12.84705        -1.01879
C          8.47300        15.03768        -0.88554
C          8.52333        16.53474        -0.61819
C          9.78351        14.32956        -1.13680
C          9.83959        17.27252        -0.67006
C          8.69965        19.19688         0.63392
C          9.90174        18.66518         0.00054
C         10.96832         1.99794         0.02533
C         10.89171         3.48558        -0.04989
C         12.15602         1.33807         0.28788
C         12.14813         4.28725         0.11179
C         11.02207         6.29763        -0.85319
C         11.02171         7.72136        -1.25342
C         12.23149         5.65754        -0.48418
C         12.33919         8.46064        -1.18635
C         11.00219        10.69550        -1.29950
C         10.98861        12.15886        -1.00322
C         12.30745         9.95937        -1.17045
C         12.27084        12.84530        -0.79619
C         11.09608        15.08155        -1.03568
C         11.11115        16.53823        -0.72777
C         12.31619        14.29424        -0.73655
C         12.32310        17.19905        -0.57023
C         11.21202        19.15470         0.40985
C         12.38246        18.54969         0.00567
C         13.42133         2.04039         0.52912
C         13.41558         3.54524         0.43364
C         14.72300         1.33312         0.48470
C         14.68075         4.21022        -0.01726
C         13.46103         6.35581        -0.43775
C         13.53749         7.75433        -0.67773
C         14.68693         5.70726         0.17832
C         14.72763         8.45949        -0.44751
C         13.41639        10.67255        -0.47950
C         13.43616        12.14399        -0.54825
C         14.69078         9.91617        -0.24327
C         14.63437        12.82245         0.09429
C         13.52043        14.96256        -0.54979
C         13.54944        16.40584        -0.68465
C         14.77395        14.26598        -0.31796
C         14.75972        16.97187        -0.98371
C         13.63783        19.18923         0.41714
C         14.82109        19.02052        -0.24248
C         15.91990         2.00627         0.41180
C         15.96748         3.43572         0.00439
C         17.17493         1.38915         0.74512
C         17.23059         4.18535         0.09639
C         15.97619         6.36155        -0.22693
C         15.98764         7.75908        -0.29194
C         17.25760         5.60152        -0.44318
C         17.20792         8.48101        -0.16490
C         15.93967        10.68742        -0.19966
C         15.92150        12.05224        -0.08239
C         17.26002         9.96809        -0.38554
C         17.16036        12.77922         0.15811
C         16.00949        14.89165        -0.37682
C         16.05840        16.31304        -0.81205
C         17.25135        14.19606        -0.02252
C         17.28788        17.16393        -0.49995
C         16.16995        19.41565         0.10060
C         17.28258        18.64122        -0.17757
C         18.34562         2.11910         0.85411
C         18.38715         3.54603         0.52634
C         19.56596         1.48678         1.29471
C         19.63654         4.24934         0.63399
C         18.45872         6.38470         0.02861
C         18.42343         7.77041         0.11626
C         19.76653         5.65090         0.08346
C         19.61284         8.51599         0.53217
C         18.29261        10.61065         0.50019
C         18.19369        11.99375         0.71749
C         19.41336         9.86269         0.89224
C         20.09746        13.08949         0.62739
C         18.49005        14.89353        -0.04467
C         18.48490        16.39084        -0.00936
C         19.79774        14.28817        -0.01333
C         19.79462        17.13861        -0.00225
C         18.57217        19.28210        -0.07481
C         19.77171        18.61288        -0.15345
C         20.72565         2.19010         1.42280
C         20.79012         3.59346         1.08273
C         22.00643         4.32506         1.24016
C         20.92647         6.44222         0.65069
C         20.89047         7.87467         0.66141
C         22.05131         5.70552         1.07206
C         22.12789         8.61460         0.61525
C         21.37191        10.97406         0.84808
C         21.28633        12.30970         0.41323
C         22.33630         9.98187         0.50841
C         22.32947        12.95139        -0.37011
C         20.89926        14.98968        -0.78522
C         21.05666        16.43104        -0.31829
C         22.18797        14.20758        -0.84507
C         22.20328        17.15683        -0.45243
C         21.03825        19.29412        -0.20962
C         22.20566        18.59086        -0.30722
O         13.71124        10.19589         0.89036
O          7.51092         4.79139         0.75061
O         19.08378        16.79419         1.26598
O         10.48074        14.77533        -2.34223
O         19.13996        12.61976         1.54529
O          9.77724        18.47650        -1.47441
O         13.41681         2.94982         1.74541
O         17.01834        16.71424        -1.86156
O          8.21462        11.47520        -2.36853
O          8.09966        15.97327        -1.92821
O         14.78707        18.28336        -1.45169
O          3.23790         5.87326         1.46800
O         11.90838        10.49262        -2.45393
O         20.36306        10.49949         1.71157
O         15.21252         3.72090        -1.25833
O         10.46351         4.13901        -2.27164
O          5.81832        16.63776         1.87683
O         11.14082         4.20297         1.18607
O          4.54569         4.93771        -1.72512
O         11.85702         7.92431        -2.45228
O          8.19450         7.62860        -2.77497
H          8.97737         7.20852        -3.19249
O         14.34135        12.81941         1.53210
H         14.13659        11.88078         1.76625
O         20.14462         5.43262        -1.35531
H         20.96911         4.89840        -1.35129
O          4.86364        18.68084        -0.92045
H          5.04064        19.61514        -1.15811
O         17.42915         5.47551        -1.90563
H         18.38881         5.29827        -2.06410
O         17.69461        10.17484        -1.77695
H         17.12447         9.62557        -2.35599
O          6.64148        11.91214         1.58894
H          5.90365        11.47307         2.06498
O         14.56906         5.89399         1.63057
H         14.48126         6.85461         1.80874
O          8.22616         3.13061        -2.46968
H          9.06842         3.41955        -2.93210
O         20.41066        15.11133        -2.15933
H         21.12401        15.50231        -2.70599
H          0.26481         1.36726         0.51924
H          0.22097         3.84350         0.54404
H          2.40811         0.13950         0.19365
H          0.15699         5.87220         0.16937
H          0.23705         8.28028         0.26031
H          0.29100        10.13972         0.64569
H          0.30582        12.56027         0.77085
H          0.30749        14.44757         0.82765
H          0.35467        16.88405         1.12572
H          1.63856        18.96946         1.52070
H          4.83651         0.16316        -0.15958
H          3.71613        20.27326         1.29916
H          7.30974         0.19928        -0.04162
H          6.30002        20.23049         1.24727
H          9.73139         0.20573         0.06634
H          8.75301        20.18137         1.12167
H         12.17161         0.23690         0.26077
H         11.25422        20.05937         1.03464
H         14.72575         0.25728         0.72097
H         13.60137        19.84645         1.29875
H         17.18139         0.31909         1.00242
H         16.33661        20.41974         0.52348
H         19.53628         0.41558         1.54244
H         18.58023        20.38093        -0.00594
H         21.64216         1.69504         1.77522
H         22.89776         3.79505         1.60457
H         22.96982         6.23453         1.36518
H         23.02400         7.99954         0.43534
H         23.32558        10.31486         0.15688
H         23.27595        12.41166        -0.52435
H         23.01717        14.66056        -1.41016
H         23.15208        16.66180        -0.70643
H         21.04769        20.39353        -0.18650
H         23.16739        19.12006        -0.35540
