         242
 CSIRO Nanostructure Databank - Neutral Graphene Oxide Data Set
C          2.21893         2.89174        -2.39838
C          1.90509         4.07602        -1.71787
C          3.20456         2.01522        -1.93621
C          2.49569         4.36148        -0.46724
C          1.25407         6.44265         0.00863
C          1.18435         7.82642         0.39034
C          2.37528         5.67793         0.18914
C          2.32487         8.53893         0.69538
C          1.14136        10.75610         0.91428
C          1.15293        12.13498         0.83158
C          2.33850        10.00531         0.76738
C          2.35402        12.86248         0.62475
C          1.16520        15.06376         0.51892
C          1.17712        16.43468         0.36824
C          2.36708        14.29985         0.48296
C          2.39637        17.13385         0.18345
C          2.42095        18.55724         0.04235
C          3.84915         2.27652        -0.70507
C          3.34341         3.35993         0.04268
C          5.05581         1.57857        -0.28934
C          4.98623         4.26490         1.09747
C          3.49666         6.29889         1.04707
C          3.58919         7.80575         0.76231
C          4.85227         5.60522         0.93231
C          4.76535         8.48408         0.60421
C          3.54488        10.70797         0.62012
C          3.58508        12.13821         0.56345
C          4.77841         9.94394         0.35513
C          4.82248        12.84654         0.42694
C          3.60175        14.97661         0.28573
C          3.61716        16.39958         0.14634
C          4.84182        14.24491         0.26847
C          4.85194        17.09349        -0.01617
C          3.60488        19.22699        -0.11664
C          4.85402        18.51993        -0.14476
C          6.15060         2.12300         0.38593
C          6.21817         3.51575         0.86873
C          7.38757         1.39007         0.37552
C          7.41107         4.18156         0.97960
C          6.08485         6.43451         1.16095
C          6.04220         7.74460         0.39804
C          7.41432         5.66414         1.11215
C          7.29948         8.46877         0.06300
C          6.08308        10.67046         0.29556
C          6.12772        12.13256         0.68036
C          7.36958         9.90977         0.55019
C          7.35410        12.80702         0.10774
C          6.09036        14.94865         0.09089
C          6.08552        16.36958        -0.04824
C          7.33292        14.22987        -0.01548
C          7.30844        17.08419        -0.20496
C          6.06780        19.20946        -0.28396
C          7.30446        18.51585        -0.30522
C          8.62722         2.00031         0.55013
C          8.74246         3.46725         0.92574
C          9.84812         1.31079         0.36559
C          9.75460         4.14903        -0.01240
C          8.66423         6.38021         0.69404
C          8.61886         7.71266        -0.04820
C          9.87987         5.62161         0.29265
C          9.84403         8.54205         0.21818
C          8.59529        10.66540         0.09053
C          8.54264        12.05386        -0.09014
C          9.84501         9.92542         0.08686
C          9.79788        12.72953        -0.62367
C          8.55117        14.94208        -0.20366
C          8.55340        16.37974        -0.23840
C          9.79212        14.23477        -0.40899
C          9.76462        17.09703        -0.30988
C          8.52936        19.21195        -0.41021
C          9.76518        18.52550        -0.40055
C         11.08314         2.00274         0.23617
C         11.08626         3.43267         0.07060
C         12.32722         1.32868         0.20073
C         12.26930         4.12176        -0.13703
C         11.02225         6.31278         0.08529
C         11.12564         7.78311         0.44593
C         12.22858         5.58303        -0.37418
C         12.33845         8.49593        -0.11446
C         11.10418        10.62895        -0.02936
C         11.07399        12.13131         0.03001
C         12.31432         9.93493        -0.17647
C         12.31331        12.76086        -0.55561
C         10.98165        14.91391        -0.50158
C         11.07869        16.37590        -0.14334
C         12.21598        14.18391        -0.88037
C         12.20982        17.11936        -0.89496
C         10.99808        19.23913        -0.40155
C         12.24331        18.55448        -0.41533
C         13.54011         2.01675         0.01905
C         13.53709         3.45174        -0.17956
C         14.78207         1.32362         0.11459
C         14.74743         4.16371        -0.35971
C         13.51758         6.32938        -0.51415
C         13.51895         7.79770        -0.32289
C         14.79048         5.57886        -0.45878
C         14.76972         8.48296        -0.43234
C         13.55089        10.63378        -0.46504
C         13.50813        12.07940        -0.69717
C         14.74514         9.91533        -0.53050
C         14.73663        12.82349        -0.96699
C         13.51972        14.95866        -1.08681
C         13.52976        16.39644        -0.76115
C         14.76956        14.19549        -0.99204
C         14.69327        17.00475        -0.35660
C         13.40338        19.14569         0.01893
C         14.62614        18.34277         0.35173
C         16.00206         1.97774        -0.05476
C         16.01795         3.38203        -0.61664
C         17.22772         1.32908         0.17990
C         17.28169         4.13697        -0.28601
C         16.00067         6.31320        -0.48603
C         15.97943         7.72968        -0.45087
C         17.31620         5.58702        -0.70914
C         17.24693         8.45914        -0.21563
C         16.01440        10.60968        -0.86084
C         16.01703        12.08940        -1.08663
C         17.27096         9.96450        -0.38077
C         17.29091        12.82935        -0.91712
C         16.05018        14.99226        -1.14590
C         15.97176        16.33777        -0.45158
C         17.30347        14.20602        -0.81088
C         17.14865        17.00898        -0.12370
C         15.90518        19.11260         0.26161
C         17.10795        18.44118         0.18923
C         18.45789         2.02033         0.09585
C         18.45607         3.45743        -0.13315
C         19.68269         1.36461         0.32683
C         19.76321         4.16434        -0.42231
C         18.55295         6.31937        -0.20916
C         18.53848         7.77255        -0.17383
C         19.72970         5.63989        -0.09974
C         19.71116         8.51083        -0.07272
C         18.56464        10.61523        -0.64030
C         18.54272        12.05731        -0.98392
C         19.73737         9.91819        -0.39218
C         19.85756        12.84154        -0.69918
C         18.50542        14.92704        -0.45695
C         18.42657        16.33227        -0.12393
C         19.72530        14.24605        -0.29720
C         19.59220        17.02606         0.26267
C         18.33920        19.13838         0.39869
C         19.54866        18.45561         0.48602
C         20.88634         2.08554         0.42767
C         20.94933         3.45212         0.17817
C         22.12466         4.20223         0.52081
C         21.06003         6.37053        -0.16007
C         20.94798         7.78799         0.43636
C         22.17474         5.55829         0.45184
C         22.21242         8.59259         0.29196
C         21.07192        10.59979        -0.69347
C         21.01651        12.06046        -0.25590
C         22.25704         9.85585        -0.13740
C         22.00035        12.70228         0.45761
C         20.86842        14.88509         0.29005
C         20.83691        16.33298         0.46629
C         21.95814        14.10528         0.67761
C         21.97648        17.05581         0.81531
C         20.75599        19.14908         0.82207
C         21.93559        18.46045         0.97913
O          8.34126         6.26828         2.10538
O         17.48897         5.45160        -2.13669
O         12.69635         5.96840        -1.71057
O          6.43195         7.97805        -1.00965
O         12.68384        14.55984        -2.23453
O          5.41728        10.37012        -0.94292
O         19.41028        12.51739        -2.06644
O         16.06997        11.13569        -2.22272
O         17.11474         9.39343         0.95082
O          3.83655         3.49842         1.34449
O         16.16101        15.30570        -2.57360
H         16.20935        14.45648        -3.06288
O          8.79272         7.32057        -1.44828
H          7.93027         7.47004        -1.90508
O         20.73968         7.57739         1.86501
H         20.50496         8.43897         2.26856
O          6.29775        12.15112         2.15593
H          6.32334        13.09194         2.43454
O         16.06634         3.22742        -2.07193
H         16.50844         4.06671        -2.41358
O          5.91915         6.88380         2.55039
H          6.82941         7.06197         2.89391
O          9.32357         3.54404         2.25228
H          8.63473         3.31085         2.90805
O         14.48129        18.00877         1.79135
H         15.29384        17.52832         2.05865
O         11.86648        17.15967        -2.29699
H         12.04231        16.25884        -2.66781
O         11.03584        12.50586         1.44751
H         10.29102        12.01558         1.85728
O         21.25783        10.58484        -2.13205
H         20.57346        11.18066        -2.52512
O         11.44447        16.43195         1.27051
H         10.77294        15.93048         1.77877
O          7.50519         9.73701         1.99839
H          7.24538        10.59406         2.41883
O         19.89823         4.14057        -1.89090
H         19.04971         4.58038        -2.22033
O         21.38124         6.49066        -1.56812
H         21.06759         5.65898        -2.00734
O          9.88939        12.45027        -2.03673
H          9.07648        12.77996        -2.47210
O          3.07601         6.17948         2.43285
H          3.85074         6.44319         2.97897
O         11.34794         7.79198         1.90690
H         11.33323         8.72670         2.20382
O          9.23282         4.01914        -1.35833
H          9.81359         4.53031        -1.96164
H          1.73406         2.68892        -3.36347
H          1.21624         4.79780        -2.17911
H          3.51744         1.16080        -2.55272
H          0.37774         6.01506        -0.50190
H          0.22272         8.34397         0.26574
H          0.18618        10.23702         1.07311
H          0.19791        12.66971         0.92029
H          0.20084        14.55923         0.66316
H          0.23417        16.99962         0.39495
H          1.46911        19.10740         0.06783
H          5.21977         0.58953        -0.75046
H          3.61671        20.32152        -0.22130
H          7.36034         0.33560         0.05641
H          6.06382        20.30594        -0.37117
H          9.84050         0.21315         0.27519
H          8.52061        20.30935        -0.48499
H         12.35033         0.23711         0.34155
H         10.97982        20.33195        -0.26668
H         14.77228         0.25639         0.38767
H         13.38021        20.19459         0.35699
H         17.22768         0.26934         0.48135
H         15.89284        20.19497         0.45981
H         19.68556         0.27969         0.50859
H         18.30891        20.22233         0.58332
H         21.79229         1.56229         0.77028
H         22.98700         3.64417         0.92018
H         23.09885         6.07206         0.75618
H         23.14470         8.11365         0.63044
H         23.23370        10.35775        -0.21816
H         22.87544        12.14630         0.82246
H         22.81672        14.57137         1.17928
H         22.93622        16.54056         0.95700
H         20.71893        20.23828         0.96677
H         22.85874        18.99592         1.24118
