         294
 CSIRO Nanostructure Databank - Neutral Graphene Oxide Data Set
C          1.13207         2.03245        -0.12350
C          1.09235         3.40173         0.14368
C          2.34294         1.36496        -0.30235
C          2.28418         4.15831         0.27805
C          1.06890         6.29859         0.79670
C          1.06844         7.65584         0.81400
C          2.27956         5.53774         0.59250
C          2.31206         8.43354         0.47017
C          1.20131        10.64148         0.10514
C          1.21274        11.99243        -0.04188
C          2.24566         9.90570         0.90345
C          2.29456        12.80824         0.43469
C          1.09471        14.93818        -0.02145
C          1.08399        16.30856        -0.35725
C          2.26562        14.22335         0.32072
C          2.25184        17.05849        -0.44752
C          2.31935        18.47488        -0.72598
C          3.57327         2.06498        -0.25922
C          3.55579         3.49481         0.03393
C          4.79537         1.37332        -0.38647
C          4.75027         4.20225         0.06369
C          3.54744         6.21431         0.90936
C          3.56161         7.75415         1.00771
C          4.82782         5.56201         0.55126
C          4.83409         8.48612         0.95832
C          3.59224        10.59956         0.80309
C          3.51837        12.07962         0.84716
C          4.81303         9.90079         0.93834
C          4.83084        12.82077         0.75274
C          3.51623        15.01211         0.45644
C          3.52282        16.42247        -0.05256
C          4.84324        14.30058         0.50922
C          4.74598        17.05175        -0.70987
C          3.47648        19.18336        -0.61495
C          4.81053        18.53350        -0.28245
C          6.02704         2.06585        -0.47818
C          5.92298         3.57481        -0.65166
C          7.26379         1.42367        -0.46299
C          7.24584         4.19210        -0.26470
C          6.01524         6.26627         0.63108
C          6.06788         7.64394         1.29065
C          7.28527         5.56380         0.34065
C          7.39069         8.39308         1.03793
C          6.10663        10.70795         1.18942
C          6.03090        11.99290         0.30600
C          7.40611         9.91136         0.98208
C          7.30708        12.80335         0.13305
C          6.06762        14.94256        -0.04973
C          6.04165        16.34030        -0.47427
C          7.27608        14.10548        -0.27872
C          7.32620        17.09457        -0.26553
C          5.99506        19.26766        -0.93312
C          7.30938        18.52689        -0.78529
C          8.53169         2.11932        -0.50896
C          8.44193         3.57935        -0.97106
C          9.72542         1.53943        -0.16149
C          9.71631         4.32427        -0.71219
C          8.54516         6.30946         0.21323
C          8.58108         7.68817         0.49791
C          9.73509         5.58930        -0.18683
C          9.76727         8.43869         0.32680
C          8.60005        10.59840         0.42961
C          8.62588        12.12279         0.45410
C          9.77087         9.86274         0.24999
C          9.75399        12.59556        -0.49593
C          8.48310        14.83527        -0.78135
C          8.44015        16.35182        -1.00565
C          9.79338        14.11201        -0.76072
C          9.78462        17.04274        -0.84104
C          8.49471        19.10875        -1.11887
C          9.77132        18.40705        -1.02678
C         11.00347         2.35190        -0.03152
C         10.93978         3.51282        -1.04956
C         12.32459         1.61159        -0.11006
C         12.22409         4.31126        -1.05281
C         11.03609         6.20718         0.26365
C         11.06616         7.73542         0.02532
C         12.25749         5.66852        -0.45724
C         12.27503         8.35191         0.79014
C         11.11974        10.50393        -0.09520
C         11.05480        12.02348         0.01980
C         12.25349         9.92514         0.79105
C         12.33106        12.77014        -0.02538
C         11.03710        14.91203        -0.57987
C         11.01070        16.28436        -0.65993
C         12.38272        14.20571        -0.51370
C         12.32961        17.05132        -0.67326
C         11.06066        19.17786        -1.22576
C         12.16490        18.56772        -0.35324
C         13.50327         2.21276        -0.51110
C         13.48782         3.50314        -1.30421
C         14.78526         1.60645        -0.34611
C         14.77085         4.33797        -1.21355
C         13.57804         6.26336         0.00680
C         13.54871         7.75481         0.23766
C         14.75278         5.80913        -0.85725
C         14.80724         8.37851         0.78218
C         13.59449        10.56080         0.44283
C         13.64553        11.99213        -0.08845
C         14.76563         9.89291         0.57423
C         14.80136        12.78171         0.47738
C         13.40793        14.94147         0.34894
C         13.39068        16.44088         0.23876
C         14.71253        14.22901         0.64847
C         14.63636        17.22799         0.52440
C         13.52768        19.20568        -0.52285
C         14.69664        18.56571        -0.14532
C         16.00166         2.27757        -0.60956
C         16.03876         3.61057        -1.03479
C         17.28227         1.49268        -0.39453
C         17.30797         4.35698        -1.14779
C         16.03569         6.58196        -0.68208
C         16.06337         7.86296         0.08079
C         17.32892         5.88501        -1.00101
C         17.40788         8.33829         0.65137
C         16.06266        10.61118         0.79621
C         16.14501        12.10788         0.44706
C         17.34256         9.84068         1.01346
C         17.25581        12.82968         1.27048
C         15.99441        15.04990         0.44575
C         15.89998        16.48713         1.04690
C         17.21855        14.33590         0.98597
C         17.22822        17.35950         0.89676
C         15.96577        19.12747        -0.44519
C         17.18460        18.46643        -0.16263
C         18.56338         2.27638        -0.58570
C         18.57097         3.65950        -0.85209
C         19.78592         1.60092        -0.45366
C         19.78488         4.39449        -0.85975
C         18.60897         6.55966        -0.68909
C         18.57221         8.05297        -0.35480
C         19.78427         5.85379        -0.82918
C         19.90754         8.54532         0.19879
C         18.66675        10.62141         1.25691
C         18.59044        12.08704         0.80291
C         19.96158         9.87046         0.88545
C         19.91857        12.68575         0.41686
C         18.28886        15.12228         1.25581
C         18.46487        16.47190         0.73701
C         20.18912        14.06709         0.83561
C         19.66838        16.94980         0.29328
C         18.37684        18.89701        -0.69682
C         19.71613        18.27784        -0.45074
C         20.99245         2.28910        -0.57267
C         21.01027         3.68350        -0.74455
C         22.27334         4.39642        -0.82370
C         21.09704         6.55941        -0.88968
C         21.16220         8.00905        -0.43223
C         22.32211         5.74182        -0.92753
C         22.43196         8.63248         0.02015
C         21.28210        10.66344         0.97889
C         21.14102        11.85641        -0.02903
C         22.47929         9.80904         0.66277
C         22.34088        12.76448        -0.26325
C         21.16251        14.85542         0.30006
C         21.01367        16.31899         0.39304
C         22.28621        14.11902        -0.28675
C         22.09065        17.16379         0.50345
C         20.74766        19.17691         0.20924
C         21.90810        18.60069         0.59637
O         14.64435         5.39606        -2.23585
O         18.84277        12.47900        -0.57286
O         15.93464         7.89946        -1.36690
O         19.39644        14.54036         1.88546
O         13.67383        14.51542         1.69361
O          3.43853         6.92648         2.19468
O         17.43254        18.05241         2.08606
O         13.55098        17.12555         1.50472
O          3.52929        16.15575         1.38796
O         21.08253         7.69336        -1.83959
O          9.07979        14.31107        -2.04196
O          7.75951         9.17929         2.21787
O         17.35333         5.24594        -2.31469
O          5.75631        14.90889         1.47044
O         11.97147        10.31893         2.15610
O         16.47580        10.16571         2.13270
O          7.44523         4.30722         1.16076
O          4.23983        12.58663         2.03519
O         20.01693         8.61419         1.64822
O         12.10139         5.50505        -1.89518
O          4.45400        16.98191        -2.13918
H          4.97200        17.69921        -2.58027
O          5.71069        19.41689        -2.33831
H          6.53532        19.68233        -2.79538
O         11.50471        10.27757        -1.45615
H         10.77798        10.60328        -2.03397
O          5.63709         3.84304        -2.05219
H          6.44791         3.60319        -2.56697
O         13.94856        11.80518        -1.51886
H         13.67895        12.63283        -1.99453
O         21.43779        11.20557         2.30122
H         20.57139        11.12100         2.77431
O         10.99138         2.98123         1.28422
H         10.90796         2.27854         1.96186
O         11.57587        12.66474         1.23052
H         12.08353        11.30047         2.22909
O         18.80092        10.75299         2.70498
H         18.74262         9.84318         3.07324
O         14.93266         8.04826         2.19102
H         14.01098         7.98316         2.55152
O         11.33593         7.89552        -1.38003
H         10.84839         7.21042        -1.88438
O          7.61479        17.12790         1.14857
H          6.82804        17.51771         1.59687
O         20.88545        11.24430        -1.30514
H         19.98086        11.51097        -1.59895
O         12.86079        16.91888        -2.02501
H         12.39711        17.58903        -2.59163
O          5.70685        11.56363        -1.05220
H          6.51885        11.20517        -1.46987
O         17.27647         0.33929        -1.25378
H         17.26447         0.65179        -2.18179
O         17.63593         7.57298         1.84270
H         16.86763         7.74872         2.43795
O         16.12340        15.16158        -0.99623
H         16.43461        14.28431        -1.32777
O          9.47264        11.92021        -1.74794
H          9.12849        12.60724        -2.37302
O         11.16332         5.82018         1.64714
H         10.32755         6.03715         2.11117
O          6.10610        11.08115         2.57420
H          6.94019        11.56599         2.75977
O         11.43545        19.11036        -2.61819
H         10.66031        19.36413        -3.16060
O         10.77150         2.92888        -2.36747
H         11.68202         2.81170        -2.75404
O          8.06822        16.54829        -2.40207
H          8.58305        15.89534        -2.92948
O         13.42882         3.08299        -2.70725
H         13.62025         3.89628        -3.23132
O          1.85570         9.96885         2.30009
H          2.57033         9.56592         2.83837
O         12.22478         7.91898         2.17896
H         11.94440         8.69996         2.71940
O          2.44687         8.45018        -0.98209
H          2.30236         7.53867        -1.31340
O          8.87141        12.52274         1.82477
H          9.76180        12.21174         2.09968
O          5.05240        18.58307         1.14271
H          4.42346        17.96648         1.58523
O         16.98015        12.63478         2.64733
H         17.61235        13.16497         3.17447
O         12.90232        14.20581        -1.87460
H         12.97675        15.15687        -2.16962
O          6.00799         7.38604         2.71635
H          6.36586         8.19101         3.15941
O         15.74767        16.29325         2.44849
H         16.26034        17.04415         2.86376
O         13.87714         5.63316         1.29730
H         13.10164         5.81978         1.88456
O         18.36277         8.83708        -1.53915
H         17.55550         8.49529        -1.99660
O         11.66386        18.77137         0.97850
H         12.30670        18.35929         1.60990
O          8.21170         3.57801        -2.40533
H          9.06425         3.27123        -2.81132
O         16.50972        12.19771        -0.96543
H         15.74122        11.82990        -1.47933
O         20.22906        18.01454        -1.79787
H         21.14604        17.67856        -1.70066
H          0.18953         1.47095        -0.18946
H          0.11687         3.88730         0.28114
H          2.34897         0.28417        -0.50392
H          0.11920         5.76195         0.93772
H          0.13410         8.20644         0.99384
H          0.38235        10.05789        -0.34034
H          0.38540        12.47384        -0.58317
H          0.13388        14.40543        -0.03595
H          0.11888        16.78381        -0.58719
H          1.38201        18.99956        -0.96862
H          4.78874         0.27211        -0.38517
H          3.45941        20.27430        -0.75928
H          7.28153         0.32729        -0.34594
H          6.08501        20.29270        -0.47020
H          9.73627         0.48701         0.16913
H          8.51702        20.16725        -1.43123
H         12.38343         0.62643         0.38313
H         10.91131        20.25527        -0.94263
H         14.83705         0.58575         0.06146
H         13.59668        20.19106        -1.01018
H         17.27696         1.09029         0.65611
H         15.99944        20.14551        -0.86547
H         19.78250         0.51654        -0.27627
H         18.34101        19.60744        -1.54097
H         21.94456         1.74501        -0.49403
H         23.20035         3.80443        -0.82538
H         23.28781         6.25345        -1.03967
H         23.37170         8.10859        -0.20991
H         23.45229        10.21573         0.97719
H         23.24743        12.26213        -0.63255
H         23.16465        14.69472        -0.61719
H         23.10178        16.75137         0.63003
H         20.59288        20.26361         0.26066
H         22.73664        19.20939         0.98712
