         210
 CSIRO Nanostructure Databank - Neutral Graphene Oxide Data Set
C         30.46204        32.04254         0.98775
C         30.49029        33.20694         0.46965
C         30.49282        35.99141        -0.94228
C         30.39345        37.21560        -1.13326
C         30.44163        40.25618        -0.87775
C         30.33203        41.46623        -0.53368
C         32.83656        29.32446         1.90479
C         31.74892        29.92828         1.75287
C         32.87807        32.09306         1.39409
C         31.51019        31.27309         1.42576
C         32.86346        33.29581         0.42663
C         31.61380        33.93152         0.04623
C         32.83924        35.87589        -0.86645
C         31.63043        35.19004        -0.60583
C         32.86697        37.27442        -1.36112
C         31.52256        38.06296        -1.51430
C         32.77530        40.23065        -1.07538
C         31.55765        39.49059        -1.21597
C         32.71444        41.62175        -0.74363
C         31.47065        42.28360        -0.41360
C         32.71876        44.24672         0.01441
C         31.61936        43.65509        -0.02308
C         35.52902        27.74024         1.85145
C         35.36329        29.09584         1.54509
C         34.13872        29.84819         1.55562
C         35.39542        31.88711         0.98967
C         34.11035        31.20152         1.24195
C         35.34797        33.27496         0.41047
C         34.05137        33.92126         0.06491
C         35.29248        35.94084        -0.77517
C         34.07798        35.23952        -0.53734
C         35.30478        37.33507        -1.07218
C         34.10152        38.06605        -1.17906
C         35.26626        40.21460        -0.93393
C         34.06888        39.51732        -1.14072
C         35.32051        41.68533        -0.89659
C         33.96843        42.41684        -0.80734
C         35.24164        44.45044        -0.11896
C         34.03123        43.80325        -0.27407
C         35.40356        45.81180         0.26943
C         37.88412        27.56632         1.49538
C         36.61605        27.09528         1.85118
C         37.84441        28.95496         1.11631
C         36.61964        29.70611         1.16919
C         37.83723        31.70083         0.42049
C         36.63799        31.09121         0.84329
C         37.84702        33.07980        -0.00891
C         36.56812        33.74387        -0.29821
C         37.84818        35.87056        -0.77699
C         36.56496        35.17954        -0.80998
C         37.93589        37.30402        -1.24154
C         36.59277        38.04225        -1.28124
C         37.80721        40.23496        -0.61907
C         36.57268        39.54520        -1.07920
C         37.77973        41.62849        -0.34994
C         36.56037        42.37456        -0.47119
C         37.76416        44.47236         0.07281
C         36.53930        43.76606        -0.20432
C         37.77466        45.87735         0.41098
C         36.45816        46.42777         0.49273
C         40.39182        24.89701         2.21775
C         39.33041        25.56333         2.09088
C         40.35714        27.44430         1.16997
C         39.12963        26.85622         1.57347
C         40.26752        28.72309         0.34901
C         39.04924        29.58107         0.65807
C         40.22577        31.52829        -0.40647
C         39.04124        30.92717         0.31065
C         40.28812        33.03533        -0.32869
C         39.03786        33.74985        -0.29760
C         40.28369        35.90374        -0.49632
C         39.02930        35.17792        -0.55316
C         40.27735        37.33269        -0.38873
C         39.04796        38.06887        -0.54697
C         40.17089        40.15896         0.16609
C         38.98332        39.45732        -0.36710
C         40.21837        41.62594         0.12438
C         39.00683        42.33930        -0.02893
C         40.25491        44.43070         0.37358
C         39.01417        43.76140         0.11275
C         40.32237        45.94620         0.36783
C         38.95103        46.56919         0.67733
C         40.12918        48.51421         1.61380
C         39.14356        47.84959         1.17217
C         42.95576        24.84495         1.86552
C         41.64572        25.40425         1.82761
C         42.83545        27.46135         0.93230
C         41.60363        26.76316         1.29642
C         42.82524        28.81748         0.51304
C         41.56015        29.51920         0.32737
C         42.77658        31.52705        -0.41418
C         41.52240        30.82830        -0.08408
C         42.75516        33.03013        -0.61909
C         41.47312        33.74301        -0.44849
C         42.74786        35.89590        -0.39861
C         41.50123        35.19145        -0.42951
C         42.74975        37.31643        -0.28811
C         41.51140        37.99797        -0.18362
C         42.75269        40.18549         0.11586
C         41.50456        39.40880         0.21252
C         42.70796        41.57242         0.21864
C         41.46046        42.29029         0.30163
C         42.72357        44.40709         0.73204
C         41.45591        43.71633         0.45536
C         42.66931        45.79463         1.21008
C         41.47205        46.52185         1.19910
C         42.61152        48.30551         2.31383
C         41.38312        47.86853         1.76032
C         43.97472        25.46053         1.49472
C         45.31502        27.46543         0.77813
C         44.12214        26.80208         1.04675
C         45.33435        28.86319         0.42833
C         44.06403        29.51722         0.28475
C         45.25728        31.60485        -0.28657
C         44.05944        30.88284        -0.10063
C         45.23660        33.04006        -0.45965
C         44.01629        33.76829        -0.46741
C         45.23603        35.89926        -0.38450
C         43.99924        35.17816        -0.41104
C         45.23929        37.33121        -0.31068
C         43.99151        38.06344        -0.23233
C         45.23455        40.21565        -0.01096
C         43.98863        39.47063        -0.09112
C         45.24634        41.57985         0.21046
C         43.96770        42.36997        -0.02729
C         45.22839        44.50049         0.61126
C         43.92152        43.74069         0.60958
C         45.12934        45.74973         1.50171
C         43.90536        46.37006         1.71815
C         43.66946        47.63354         2.32090
C         47.74647        27.47307         0.60274
C         46.65157        26.95881         0.85438
C         47.95088        28.96268         0.48644
C         46.55231        29.57013         0.19099
C         47.72177        31.65222        -0.57100
C         46.51990        30.92581        -0.19631
C         47.68657        33.02344        -0.73213
C         46.45960        33.75211        -0.54623
C         47.71110        35.88279        -0.45195
C         46.46126        35.18035        -0.49822
C         47.68405        37.28701        -0.23463
C         46.47448        38.00945        -0.24599
C         47.76386        40.16358         0.20339
C         46.52135        39.51384        -0.37432
C         47.73925        41.54938         0.54080
C         46.49608        42.28595         0.49917
C         47.69085        44.27309         1.28712
C         46.47665        43.65041         0.83789
C         47.54098        45.63885         1.68719
C         46.41247        46.16208         1.86928
C         50.35221        28.93122        -0.54441
C         48.96663        29.40009        -0.53788
C         50.19216        31.61067        -1.28109
C         48.93033        30.87659        -0.96305
C         50.16383        33.02664        -1.31632
C         48.84846        33.79172        -1.32443
C         50.16302        35.85863        -0.72913
C         48.93972        35.19208        -0.73993
C         50.24013        37.22147        -0.14871
C         48.93718        37.98203         0.08650
C         50.22503        40.10709         0.45778
C         48.96744        39.45553         0.22006
C         50.22769        41.49055         0.84299
C         48.96691        42.18435         0.91885
C         50.18631        44.06501         1.64202
C         48.90431        43.56680         1.31536
C         51.30727        29.48815        -1.11849
C         52.55208        31.71018        -1.65463
C         51.44441        30.88806        -1.38710
C         52.47220        32.96941        -1.67341
C         51.35540        33.80016        -1.48231
C         52.44809        36.09046        -1.25348
C         51.35938        35.21256        -1.23700
C         52.48380        37.29416        -0.84771
C         51.47472        38.05078        -0.26602
C         52.56840        40.21836         0.44446
C         51.45864        39.38447         0.21445
C         52.62938        41.40171         0.86730
C         51.48581        42.18814         1.11537
C         51.31448        43.52739         1.54947
O         36.42679        34.01924        -1.72015
O         39.91657        31.13870        -1.88199
O         42.77279        32.11343        -1.78043
O         48.52407        29.75968        -1.85084
O         32.22292        37.57181        -2.65866
O         36.61047        38.93891        -2.43911
O         40.70454        39.63025         1.42799
O         49.65585        37.31654         1.18836
O         35.57560        33.11176         1.85708
O         34.67848        42.29401        -2.07406
O         48.51170        33.98696        -2.73694
H         48.38165        33.10358        -3.14318
O         38.39483        37.17138        -2.62356
H         37.98817        37.91418        -3.13081
O         48.40627        29.47999         1.73546
H         47.84850        29.11621         2.45389
O         40.61861        46.31818        -1.01126
H         40.60056        47.29734        -1.07113
O         45.37899        44.98865        -0.77530
H         44.68876        45.66912        -0.93202
O         46.64464        39.72947        -1.83269
H         46.35375        40.64652        -2.02795
O         32.97989        32.68464         2.71430
H         33.90584        33.02342         2.80435
O         40.06053        28.26929        -1.02478
H         40.89105        27.85639        -1.34179
O         40.20674        32.24275        -2.74053
H         41.19963        32.21463        -2.81560
O         43.99385        42.64258        -1.47890
H         44.61661        43.39959        -1.61159
