         429
 CSIRO Nanostructure Databank - Neutral Graphene Oxide Data Set
C          1.18154         2.06512         0.59706
C          1.15047         3.43756         0.63583
C          2.39954         1.35240         0.68146
C          2.39716         4.20249         0.99355
C          1.20855         6.40887         0.96244
C          1.16313         7.78270         0.81625
C          2.38033         5.68241         0.66174
C          2.32085         8.51363         0.45823
C          1.11564        10.69051         0.64375
C          1.11044        12.07323         0.68678
C          2.30522         9.96345         0.40388
C          2.29701        12.80884         0.48316
C          1.08092        15.11386         0.63116
C          1.13876        16.47332         0.63126
C          2.29430        14.28415         0.76340
C          2.38539        17.21315         0.64092
C          2.42297        18.63725         0.58433
C          3.64356         2.03823         0.59468
C          3.64247         3.47232         0.56710
C          4.86249         1.34252         0.44114
C          4.80914         4.17086         0.23089
C          3.52885         6.37093         0.25650
C          3.52626         7.79835         0.20871
C          4.73634         5.61149        -0.25291
C          4.74864         8.53733        -0.02704
C          3.50576        10.68250         0.12719
C          3.48433        12.11522         0.17995
C          4.72133         9.93428        -0.11128
C          4.71754        12.89705        -0.11788
C          3.59307        15.04120         0.73233
C          3.60066        16.50930         0.60574
C          4.79141        14.35661         0.17295
C          4.84946        17.17763         0.51236
C          3.62555        19.30957         0.52453
C          4.87347        18.61267         0.50270
C          6.06232         2.04356         0.17812
C          6.00879         3.46710         0.02826
C          7.28917         1.36113        -0.04267
C          7.19003         4.19749        -0.54896
C          6.03342         6.36126        -0.05574
C          6.01708         7.79469        -0.05326
C          7.23069         5.66130        -0.17468
C          7.23893         8.46820        -0.05650
C          5.97624        10.67043        -0.43393
C          6.01420        12.17384        -0.31376
C          7.26956         9.91563        -0.34208
C          7.26988        12.87854         0.07452
C          6.09685        15.04629         0.37015
C          6.08249        16.44281         0.49482
C          7.28144        14.24191         0.40505
C          7.36111        17.19654         0.79048
C          6.09844        19.32299         0.47552
C          7.36837        18.70344         0.48215
C          8.51042         2.05239        -0.26740
C          8.49714         3.47913        -0.34986
C          9.74492         1.35907        -0.33935
C          9.71265         4.18628        -0.36412
C          8.48787         6.34028        -0.14589
C          8.48775         7.76637        -0.01591
C          9.71833         5.64041        -0.26313
C          9.71729         8.45811         0.10922
C          8.54090        10.66842        -0.13841
C          8.50147        12.13988         0.06346
C          9.70578         9.91869         0.49065
C          9.72702        12.79651         0.12010
C          8.56906        14.91161         0.85942
C          8.56559        16.36322         0.41198
C          9.81285        14.19772         0.36610
C          9.73931        16.89156         0.01191
C          8.51383        19.52132         0.59134
C          9.85226        19.06539         0.29144
C         10.96514         2.05249        -0.48252
C         10.93477         3.47902        -0.47307
C         12.21913         1.34836        -0.53017
C         12.18118         4.23742        -0.65204
C         10.94931         6.34687        -0.17734
C         10.94155         7.76445         0.03583
C         12.20318         5.66926        -0.28420
C         12.19753         8.44964         0.19781
C         11.01634        10.59954         0.20459
C         10.96633        12.03350        -0.13499
C         12.20301         9.91004         0.21163
C         12.24331        12.77921        -0.28811
C         11.02265        14.87681         0.26141
C         11.03358        16.34414         0.54722
C         12.23949        14.24946        -0.12379
C         12.27389        17.11961         0.17500
C         11.11126        19.33567         0.76907
C         12.30192        18.54672         0.37943
C         13.45415         1.99608        -0.56010
C         13.48304         3.47213        -0.70080
C         14.69419         1.30590        -0.52599
C         14.73446         4.18817        -0.38226
C         13.41973         6.33618        -0.06133
C         13.39950         7.74296         0.21702
C         14.69894         5.62223        -0.13652
C         14.61675         8.48726         0.72964
C         13.48437        10.61053         0.11444
C         13.50112        12.11859         0.20605
C         14.66296         9.93795         0.23973
C         14.72330        12.79315        -0.35490
C         13.40805        14.96371        -0.31321
C         13.44568        16.40774        -0.16002
C         14.55436        14.19347        -0.94197
C         14.70042        17.09698        -0.28887
C         13.53788        19.19450         0.29991
C         14.74466        18.50592        -0.02173
C         15.92894         1.99204        -0.48309
C         15.90236         3.44002        -0.32997
C         17.17169         1.30778        -0.61445
C         17.19089         4.14106        -0.29763
C         15.88229         6.30548         0.13026
C         15.92372         7.71365         0.56922
C         17.17194         5.62742        -0.07822
C         17.25689         8.49444         0.36888
C         15.93208        10.71797         0.21746
C         15.91645        12.11354        -0.32011
C         17.24370         9.98689         0.22226
C         17.16663        12.75917        -0.61474
C         15.86841        14.97355        -0.98888
C         15.90583        16.40560        -0.60539
C         17.16579        14.20144        -0.92298
C         17.14764        17.07336        -0.55758
C         15.98504        19.18306        -0.07860
C         17.19138        18.49447        -0.32198
C         18.43652         1.93667        -0.47731
C         18.43233         3.35017        -0.03509
C         19.68040         1.30807        -0.62610
C         19.72927         4.08856         0.12432
C         18.44643         6.34372         0.24128
C         18.41892         7.77415        -0.08106
C         19.72937         5.59130         0.18671
C         19.59920         8.41691        -0.71618
C         18.44545        10.63960        -0.36132
C         18.40550        12.08304        -0.56625
C         19.60597         9.92179        -0.58910
C         19.60915        12.79529        -0.81091
C         18.41881        14.94651        -0.73441
C         18.39900        16.35637        -0.68175
C         19.63538        14.21814        -0.79867
C         19.63857        17.06292        -0.69277
C         18.44409        19.17443        -0.33956
C         19.66360        18.50463        -0.55175
C         20.93356         2.01344        -0.54402
C         20.97673         3.40694        -0.26208
C         22.17367         1.36895        -0.81278
C         22.18117         4.14442        -0.34308
C         20.96974         6.30421        -0.19192
C         20.91619         7.74284        -0.36961
C         22.15284         5.59576        -0.25970
C         22.07720         8.47562        -0.49451
C         20.86185        10.60261        -0.75600
C         20.85904        12.05167        -1.17809
C         22.05434         9.91078        -0.62303
C         22.11615        12.80669        -0.85715
C         20.87129        14.93752        -0.89082
C         20.84899        16.34485        -0.86417
C         22.12332        14.19197        -0.88746
C         22.08661        17.10354        -1.12400
C         20.90824        19.19995        -0.56724
C         22.13672        18.55181        -0.82552
C         23.38229         2.06832        -0.84709
C         23.40565         3.47544        -0.64220
C         24.64299         1.30933        -1.23213
C         24.63222         4.25007        -0.83177
C         23.44803         6.35914        -0.17376
C         23.37221         7.75324        -0.79450
C         24.64063         5.61710        -0.72660
C         24.60866         8.53568        -0.44251
C         23.28528        10.68663        -0.20312
C         23.40870        12.03343        -0.90768
C         24.58453         9.92101        -0.28149
C         24.59646        12.78716        -0.34897
C         23.37833        14.89587        -0.80997
C         23.41330        16.32682        -1.10056
C         24.56915        14.23362        -0.43047
C         24.65229        17.07388        -0.91062
C         23.37806        19.20868        -0.83404
C         24.64004        18.52386        -0.94438
C         25.91570         2.05668        -0.89638
C         25.88835         3.52546        -1.16132
C         27.05514         1.44889        -0.51169
C         27.19117         4.27279        -1.23642
C         25.85506         6.44437        -0.91181
C         25.83532         7.84797        -0.44293
C         27.20067         5.76916        -1.05904
C         27.03820         8.52276        -0.13264
C         25.79044        10.63198        -0.06310
C         25.73077        12.08630         0.01250
C         27.01212         9.93192         0.09614
C         26.94305        12.79532         0.45340
C         25.76473        14.98173        -0.26307
C         25.82705        16.36353        -0.60009
C         26.95507        14.33206         0.29391
C         27.09714        17.05193        -0.59283
C         25.86344        19.19392        -0.96533
C         27.12714        18.42061        -1.24299
C         28.30193         2.23850        -0.16406
C         28.49091         3.49549        -1.05334
C         29.58297         1.44128        -0.22205
C         29.62598         4.30679        -0.45408
C         28.36454         6.45048        -0.43791
C         28.26927         7.77204        -0.02288
C         29.57509         5.69342        -0.21979
C         29.37870         8.41265         0.77172
C         28.25157        10.64076         0.41243
C         28.23553        12.09173         0.47181
C         29.42004         9.92676         0.63841
C         29.41390        12.83732         0.52037
C         28.25480        14.99976         0.14991
C         28.25600        16.39315        -0.23191
C         29.42607        14.26013         0.30478
C         29.51653        17.15491        -0.12045
C         28.41708        19.16879        -1.03135
C         29.57395        18.53829        -0.63893
C         30.79401         2.10436        -0.22503
C         30.79706         3.57060        -0.17335
C         32.05246         1.40675        -0.23134
C         31.98163         4.25489         0.19364
C         30.75421         6.39017         0.25932
C         30.71117         7.74416         0.59859
C         31.98348         5.64420         0.36866
C         31.91309         8.41342         1.22656
C         30.65288        10.61814         1.04006
C         30.68082        12.15976         0.86860
C         31.95799         9.92800         1.03712
C         31.98070        12.77282         0.62140
C         30.72252        14.90224        -0.01401
C         30.80300        16.38606         0.04043
C         32.02725        14.14252         0.10651
C         32.08206        17.02148        -0.31911
C         30.87699        19.13029        -0.76268
C         32.06141        18.39935        -0.65692
C         33.26708         2.05981        -0.00574
C         33.20530         3.47393         0.43085
C         34.53093         1.42544        -0.07593
C         34.53431         4.26463         0.49187
C         33.22670         6.36876         0.55513
C         33.19415         7.74549         0.82235
C         34.46471         5.70578         0.38796
C         34.45151         8.42466         1.13098
C         33.12822        10.65042         1.15187
C         33.17721        12.10002         0.93140
C         34.41851         9.94284         1.36986
C         34.41501        12.81570         0.93323
C         33.28544        14.89960         0.19554
C         33.29637        16.28083        -0.14701
C         34.46948        14.20660         0.59030
C         34.55199        16.97827        -0.20130
C         33.34983        19.07135        -1.06749
C         34.59717        18.34011        -0.62580
C         35.75360         2.13823         0.01974
C         35.76922         3.55126         0.17377
C         37.01741         1.46285        -0.09673
C         36.97536         4.30126         0.12998
C         35.69543         6.48940         0.03384
C         35.72175         7.82633         0.73437
C         36.97009         5.71502         0.24514
C         36.91287         8.51665         0.90363
C         35.70017        10.65348         1.25319
C         35.64472        12.14952         1.51806
C         36.88163         9.94093         1.21226
C         36.92895        12.86415         1.17858
C         35.71473        14.92738         0.60299
C         35.75395        16.30825         0.19623
C         36.93214        14.21639         0.89531
C         36.97919        17.02347         0.12389
C         35.80563        19.00419        -0.72324
C         37.02785        18.35531        -0.37690
C         38.21222         2.15506        -0.07970
C         38.22436         3.59979         0.01515
C         39.49555         1.46311        -0.07013
C         39.42596         4.31326         0.04427
C         38.18133         6.42412         0.42960
C         38.18056         7.83145         0.70752
C         39.42903         5.70931         0.33441
C         39.41662         8.51517         0.87029
C         38.17768        10.62957         1.42726
C         38.19351        12.15414         1.44615
C         39.44283         9.92188         1.14694
C         39.48038        12.82922         1.17656
C         38.21271        14.95962         0.99756
C         38.22995        16.42108         0.60340
C         39.49513        14.22380         0.96780
C         39.51487        17.03907         0.24161
C         38.26689        19.02029        -0.52253
C         39.50505        18.36927        -0.27113
C         40.66372         2.13485        -0.11535
C         40.71057         3.62427        -0.34921
C         41.91404         4.29735         0.24632
C         40.65853         6.38783         0.54707
C         40.65708         7.79255         0.77939
C         41.88010         5.59901         0.60072
C         41.87335         8.52157         0.92361
C         40.65983        10.62424         1.19167
C         40.68571        12.08685         1.19492
C         41.87554         9.88390         1.09067
C         41.89834        12.80479         1.08184
C         40.71600        14.92081         0.79507
C         40.73029        16.34575         0.43722
C         41.91246        14.17700         0.89280
C         41.93765        17.03021         0.17411
C         40.74139        19.02043        -0.51979
C         41.93559        18.35379        -0.28013
O          4.53230        13.89766        -1.19902
O         16.56812        14.64007        -2.23368
O         22.72741        16.70594        -2.36848
O         26.57282         6.41033        -2.20457
O         11.59910        12.27336        -1.47554
O         26.73284        13.68729         1.58965
O         33.84418         3.72866         1.69316
O          5.97345        11.51156        -1.62621
O         12.85122         3.94963        -1.93997
O         34.41673         9.00958         2.49810
O         19.17899         6.05224         1.48727
O         30.14459        16.98043         1.20504
O         16.74470        10.63875         1.44618
O         26.49251         3.87166        -2.46327
O          9.79983        18.07012        -0.71651
O         38.16804        15.99913         2.02808
O         31.33583        14.33696        -1.21623
O         19.03550         3.50791         1.28714
O         38.19485        11.37923         2.70340
O          4.62048         5.46942        -1.67566
O          3.07372        14.55267         2.00710
O         30.54580        11.51825         2.18525
O          8.18547        10.21127        -1.46714
O         16.81074         7.97575         1.69270
O         17.31107         5.05942        -1.44285
O         23.69684         6.56653         1.25176
H         23.55823         5.71452         1.71664
O         33.38192        20.43429        -0.62835
H         33.35836        20.44015         0.35045
O         23.67355        11.74305        -2.32524
H         23.87830        12.59469        -2.76807
O         19.46333         8.17754        -2.17435
H         20.24644         8.57475        -2.61317
O          9.47869         9.99539         1.93692
H         10.24050         9.56951         2.38460
O         27.10938        18.14154        -2.70546
H         26.20569        17.83101        -2.93132
O         23.36592         7.57035        -2.23793
H         23.64524         8.40927        -2.66032
O          2.42585         4.17364         2.47841
H          2.40232         3.23042         2.74916
O         23.07331        10.99803         1.20285
H         23.08284        10.15824         1.70872
O         31.76971         8.23793         2.69181
H         32.62143         8.55475         3.08675
O         20.84503        11.94851        -2.66533
H         21.75677        11.67205        -2.92599
O         14.12232        13.97011        -2.31305
H         14.94048        13.94505        -2.86493
O         13.50540        12.40896         1.65044
H         14.26001        11.92241         2.04891
O         24.62318         1.07799        -2.65411
H         24.74157         1.94223        -3.10170
O         28.12126         2.73719         1.19624
H         28.17492         1.97664         1.81171
O         28.93846         3.06604        -2.35339
H         28.15424         3.09778        -2.95088
O         35.60271         6.77259        -1.42451
H         36.46104         7.16057        -1.69901
O          7.41347        17.24283         2.26176
H          7.57937        16.31582         2.57482
O         10.89986        16.48273         2.02336
H         11.76988        16.25379         2.41631
O         40.83554         3.79111        -1.81092
H         40.05444         3.35845        -2.21704
O         35.51479        12.26606         2.97740
H         36.35890        11.92059         3.35660
O          6.92382         4.15750        -1.99332
H          6.04750         4.65575        -2.11576
O         14.38819         8.60905         2.16629
H         15.27902         8.72650         2.57618
O          8.60989        14.84114         2.32347
H          9.44255        15.31198         2.58313
O         29.01991         8.19985         2.19036
H         29.84857         8.32104         2.71746
H          0.24511         1.50024         0.47840
H          0.18667         3.96320         0.58299
H          2.39047         0.25331         0.68975
H          0.31299         5.87926         1.31586
H          0.21979         8.30050         1.03159
H          0.17108        10.16273         0.82650
H          0.17348        12.59912         0.91578
H          0.10674        14.61825         0.50800
H          0.20574        17.05156         0.55171
H          1.47793        19.19931         0.59954
H          4.86975         0.24335         0.46739
H          3.63718        20.40920         0.50222
H          7.30090         0.26173         0.00833
H          6.05303        20.42250         0.41453
H          9.74798         0.26061        -0.28418
H          8.35359        20.59251         0.80362
H         12.19456         0.24924        -0.48025
H         11.26699        20.16774         1.47219
H         14.69073         0.20572        -0.55385
H         13.59061        20.27689         0.48999
H         17.14307         0.22948        -0.83443
H         16.01137        20.26876         0.09818
H         19.71043         0.23886        -0.88611
H         18.45218        20.26407        -0.18518
H         22.17830         0.28910        -1.02393
H         20.90730        20.28489        -0.38408
H         24.64545         0.30339        -0.74111
H         23.39815        20.30013        -0.69594
H         27.06551         0.35780        -0.34992
H         25.88887        20.29360        -0.96016
H         29.54998         0.34047        -0.21786
H         28.47048        20.19663        -1.42308
H         32.04782         0.31792        -0.39253
H         30.94606        20.18319        -1.07499
H         34.56712         0.34911        -0.30033
H         33.36293        19.10941        -2.19468
H         37.02592         0.36448        -0.16410
H         35.82633        20.04598        -1.07339
H         39.48625         0.36553         0.01466
H         38.27523        20.05716        -0.88924
H         41.61854         1.58740        -0.10101
H         42.85225         3.72649         0.31405
H         42.79703         6.07004         0.98240
H         42.83550         7.99692         0.86144
H         42.84093        10.40117         1.15784
H         42.86093        12.27997         1.12889
H         42.88441        14.67898         0.80111
H         42.90370        16.53063         0.32324
H         40.74262        20.05152        -0.90012
H         42.89261        18.86084        -0.46590
