         658
 CSIRO Nanostructure Databank - Neutral Graphene Oxide Data Set
C          6.00424        31.75903        -0.85069
C          6.01292        33.12240        -0.91754
C          8.42633        27.46114        -0.49449
C          8.45066        28.85538        -0.55804
C          7.24629        29.61813        -0.70053
C          8.46689        31.75460        -0.74319
C          7.23393        31.01307        -0.75249
C          8.49081        33.15142        -0.75787
C          7.24074        33.87611        -0.85204
C          8.43659        36.02907        -0.74770
C          7.23550        35.26333        -0.88783
C          8.40541        37.41758        -0.81013
C         10.89077        23.10115        -0.23652
C         10.87669        24.53186        -0.50382
C          9.62679        25.32406        -0.47486
C         10.84961        27.42669         0.17245
C          9.62750        26.68900        -0.33950
C         10.90547        28.88169        -0.24707
C          9.72631        29.55320        -0.52889
C         11.01786        31.78261        -0.67854
C          9.72534        31.00336        -0.82580
C         10.94184        33.21913        -0.36619
C          9.72554        33.88960        -0.56607
C         10.85174        36.05382        -0.21815
C          9.68859        35.32960        -0.50018
C         10.83583        37.50351        -0.30792
C          9.59521        38.20694        -0.66490
C         10.88113        40.35010        -0.86483
C          9.58651        39.57667        -0.81634
C         10.79694        41.82949        -0.54886
C         13.32954        18.83543         0.10747
C         13.29965        20.24941         0.17311
C         12.10287        20.97843        -0.00722
C         13.35342        23.11125         0.08057
C         12.09285        22.39728        -0.07150
C         13.39833        24.52214         0.03100
C         12.19311        25.27549        -0.35691
C         13.33161        27.40445         0.13937
C         12.16771        26.72626        -0.05583
C         13.32448        28.85724         0.25333
C         12.16164        29.56054        -0.10268
C         13.37726        31.77054         0.32778
C         12.24923        31.01726        -0.32466
C         13.22189        33.21692         0.60989
C         12.08907        33.91291         0.17695
C         13.17550        36.09506         0.61886
C         12.05270        35.36897         0.22389
C         13.14012        37.56405         0.56068
C         11.96510        38.22498        -0.01443
C         13.30043        40.35172        -0.27072
C         11.94862        39.73192         0.04491
C         13.24581        41.79360        -0.62483
C         11.95812        42.52303        -0.40331
C         13.18866        44.65727        -0.08098
C         12.02267        43.97092        -0.22820
C         13.17931        46.14568         0.23889
C         15.78301        14.55521         0.02665
C         15.74120        15.91986         0.24406
C         14.56492        16.70305         0.08142
C         15.72948        18.83451         0.62046
C         14.53103        18.10765         0.28361
C         15.73703        20.23207         0.62323
C         14.53376        20.96595         0.37987
C         15.78858        23.09964         0.52373
C         14.55201        22.38251         0.33455
C         15.78334        24.53375         0.55226
C         14.59367        25.23154         0.29337
C         15.77317        27.39936         0.83015
C         14.67379        26.72044         0.03117
C         15.67060        28.81878         1.09168
C         14.50237        29.52290         0.71868
C         15.63824        31.69097         1.53543
C         14.39326        30.95275         1.05245
C         15.62128        33.19586         1.57964
C         14.31085        33.90851         1.31460
C         15.67477        36.14568         1.27797
C         14.33009        35.44191         1.26604
C         15.70701        37.61865         0.93642
C         14.41556        38.36047         0.69403
C         15.77499        40.36471        -0.02298
C         14.47247        39.72507         0.08744
C         15.84576        41.73366        -0.67170
C         14.53731        42.54942        -0.61375
C         15.73152        44.66453         0.33628
C         14.47803        43.92145         0.00512
C         15.73836        46.14918         0.34005
C         14.52271        46.85589         0.16949
C         15.77361        48.96912         0.05708
C         14.55210        48.24930         0.06171
C         15.79555        50.40384        -0.02159
C         18.31910        10.34201        -0.81672
C         18.23913        11.67709        -0.25185
C         17.07656        12.39165        -0.20133
C         18.24781        14.50934         0.49837
C         16.94791        13.72337         0.50946
C         18.26410        15.87763         0.58513
C         16.96951        16.59701         0.74514
C         18.29233        18.82834         1.09549
C         16.95938        18.07977         0.96112
C         18.19574        20.27104         0.67274
C         17.00303        20.95596         0.68170
C         18.23987        23.13775         0.80222
C         17.00572        22.40816         0.62853
C         18.21067        24.56778         0.99216
C         16.99800        25.25482         0.84916
C         18.12175        27.32355         1.69021
C         16.92773        26.67859         1.09138
C         18.09153        28.82878         1.83430
C         16.85443        29.55710         1.46720
C         18.14095        31.65824         1.00760
C         16.89083        30.94540         1.48586
C         18.20313        33.13519         1.41039
C         16.93186        33.94882         1.49253
C         18.18646        35.99283         0.56781
C         16.91983        35.36414         1.11373
C         18.23336        37.53699         0.77351
C         16.93217        38.17145         0.21106
C         18.25606        40.34698         0.07003
C         16.96107        39.68188         0.15162
C         18.30034        41.76401         0.05470
C         17.07359        42.53202        -0.26132
C         18.24413        44.62872         0.67375
C         17.03844        43.98556         0.06249
C         18.22516        46.12096         0.76286
C         16.96765        46.84411         0.39599
C         18.27240        48.91421         0.07785
C         16.99224        48.24106         0.21511
C         18.27874        50.38076        -0.34206
C         16.98684        51.13126        -0.06749
C         18.23153        53.30220         0.08357
C         17.02864        52.54792        -0.04735
C         18.29413        54.68855        -0.01078
C         20.74249         6.11030        -1.36793
C         20.76574         7.49270        -1.36309
C         19.50131         8.28414        -1.63631
C         20.78035        10.27961        -0.74192
C         19.50216         9.66832        -1.01620
C         20.80474        11.60961        -0.08089
C         19.49964        12.27244         0.26302
C         20.79988        14.51424         0.36142
C         19.50635        13.74366         0.56298
C         20.72920        15.98545         0.25242
C         19.49939        16.65339         0.47833
C         20.68593        18.77906         0.33897
C         19.48174        18.07341         0.50879
C         20.69290        20.26178         0.22072
C         19.38842        21.03903         0.18328
C         20.70493        23.11204         1.01274
C         19.45749        22.44389         0.76165
C         20.71443        24.55260         1.25704
C         19.44496        25.28889         1.27313
C         20.71203        27.31098         2.11851
C         19.42288        26.62723         1.61465
C         20.68012        28.85934         2.08669
C         19.38174        29.60403         1.92322
C         20.70673        31.59050         1.03414
C         19.42904        30.96677         1.40031
C         20.70087        33.06109         0.71591
C         19.49486        33.84038         1.18100
C         20.73141        36.05847         0.71440
C         19.47614        35.34265         1.07017
C         20.67192        37.46243         0.22465
C         19.49739        38.17082         0.21308
C         20.70774        40.33943         0.08502
C         19.48565        39.62252         0.08859
C         20.72674        41.74658         0.22084
C         19.50737        42.45083         0.25137
C         20.63293        44.65325        -0.24266
C         19.59315        43.91803         0.61842
C         20.74871        46.10698         0.17559
C         19.57201        46.85770         0.82172
C         20.72076        48.93092        -0.22279
C         19.45499        48.24028         0.21252
C         20.75074        50.33402         0.32711
C         19.44809        51.07860         0.32533
C         20.80768        53.27013         0.65267
C         19.45615        52.55924         0.48856
C         20.77099        54.71930         0.22551
C         19.53984        55.41839         0.07423
C         20.80420        57.53899        -0.03244
C         19.57687        56.82084        -0.05786
C         20.83945        58.95620        -0.04008
C         23.06949         3.20908        -0.93875
C         21.90115         3.92767        -1.12906
C         23.18242         6.01581        -1.01399
C         21.93280         5.34453        -1.16728
C         23.21464         7.45194        -1.01485
C         21.99999         8.18337        -1.15152
C         23.26959        10.27727        -0.49784
C         21.97669         9.60308        -0.91078
C         23.23663        11.77265        -0.64334
C         22.02868        12.43407        -0.27978
C         23.10833        14.66929        -0.68129
C         21.97404        13.81626        -0.18285
C         23.24919        15.91856         0.20664
C         21.94259        16.69833         0.18291
C         23.22067        18.76509         0.64079
C         21.92178        18.09447         0.26053
C         23.22662        20.26753         0.62400
C         21.95099        21.00137         0.52183
C         23.19776        23.04163         1.22027
C         21.90881        22.41095         0.92891
C         23.19264        24.56402         1.41059
C         21.90018        25.25266         1.33603
C         23.23430        27.39210         1.56010
C         21.88253        26.76682         1.28218
C         23.31071        28.82544         1.82084
C         21.98865        29.62225         1.92647
C         23.22549        31.71560         1.29552
C         22.02041        30.99661         1.39834
C         23.28165        33.10392         0.91583
C         22.00832        33.79143         0.56389
C         23.25630        36.02419         0.52919
C         21.98335        35.28042         0.43688
C         23.21590        37.38685         0.39683
C         21.97804        38.11777         0.02765
C         23.19584        40.38243         0.57600
C         22.00112        39.62827        -0.01064
C         23.20791        41.81199         0.07825
C         21.97699        42.50707         0.12072
C         23.14404        44.58121        -0.38286
C         21.94792        43.89646        -0.13994
C         23.06646        46.04044        -0.79323
C         21.93622        46.77597        -0.05538
C         23.22322        48.91150        -0.22059
C         22.00974        48.19757         0.00002
C         23.25610        50.32860        -0.14579
C         22.02870        51.07400         0.21520
C         23.24950        53.24017        -0.06560
C         21.91488        52.53706        -0.15142
C         23.23901        54.63987        -0.01489
C         22.00588        55.38799         0.08019
C         23.29008        57.52353        -0.02169
C         22.03951        56.81201        -0.01385
C         23.29973        58.94522         0.01795
C         22.06179        59.66678         0.00563
C         23.32625        61.75966         0.07922
C         22.10425        61.08754         0.03378
C         24.30389         3.87321        -0.80337
C         25.72970         5.93068        -0.72560
C         24.37659         5.26346        -0.84804
C         25.69239         7.44127        -0.80876
C         24.47132         8.12422        -0.92056
C         25.78586        10.33366        -1.22689
C         24.48222         9.59205        -1.09844
C         25.70826        11.82748        -1.10153
C         24.43883        12.51606        -0.84263
C         25.59877        14.73190        -1.09750
C         24.39739        13.91549        -0.85555
C         25.65668        16.11969        -0.61465
C         24.46567        16.73998        -0.17561
C         25.62399        18.85492        -0.12215
C         24.43264        18.12437         0.00951
C         25.51903        20.35735        -0.27702
C         24.38810        20.98948         0.48367
C         25.61510        23.15272         0.59886
C         24.42885        22.40866         0.71409
C         25.61939        24.58089         0.83582
C         24.43450        25.28397         1.10274
C         25.65640        27.42666         1.07274
C         24.41736        26.71747         1.21437
C         25.68148        28.86107         1.15883
C         24.52466        29.56115         1.48412
C         25.78027        31.72488         1.17462
C         24.54006        31.05138         1.73727
C         25.80380        33.22809         1.28045
C         24.47484        33.85477         0.87896
C         25.72021        35.94605         0.37850
C         24.49760        35.26468         0.61899
C         25.66117        37.36463        -0.15931
C         24.49653        38.13279         0.41202
C         25.73179        40.29666        -0.10997
C         24.52050        39.62982         0.42048
C         25.54893        41.62725        -0.80699
C         24.39219        42.46926        -0.28201
C         25.61595        44.61965        -0.57215
C         24.34967        43.86574        -0.48752
C         25.58922        46.07027        -0.80669
C         24.40472        46.77786        -0.72328
C         25.65151        48.93631        -0.60400
C         24.44097        48.21130        -0.56158
C         25.71347        50.33178        -0.31229
C         24.47067        51.05508        -0.17410
C         25.72431        53.18433         0.13391
C         24.44832        52.48313        -0.08443
C         25.79638        54.62388        -0.21911
C         24.48527        55.37674        -0.26172
C         25.77711        57.49971        -0.01653
C         24.52011        56.82716        -0.08538
C         25.76512        58.90938         0.05838
C         24.55009        59.64018         0.05296
C         24.53405        61.06226         0.09010
C         26.89673         8.15637        -0.70501
C         28.23838        10.15703        -0.44885
C         27.02408         9.56515        -0.85647
C         28.58296        11.50838        -0.77253
C         26.79389        12.57199        -1.44739
C         28.18523        14.65739        -0.85684
C         26.92134        14.02946        -1.30766
C         28.19460        16.07454        -0.79124
C         26.90891        16.79773        -0.61619
C         27.95500        18.96064         0.36802
C         26.85106        18.17499        -0.26694
C         28.13086        20.36395        -0.13164
C         26.82782        21.12276        -0.21057
C         28.09068        23.17830         0.33086
C         26.85527        22.52376         0.21566
C         28.09487        24.59787         0.56008
C         26.86438        25.28888         0.73255
C         28.09589        27.41397         0.78093
C         26.85871        26.70858         0.85349
C         28.08825        28.84566         0.72280
C         26.92085        29.56270         0.90244
C         28.17611        31.69569         0.51255
C         26.91370        31.02074         0.86017
C         28.17726        33.14566         0.40443
C         27.00647        33.86519         0.60930
C         28.17318        35.97727        -0.01015
C         26.96082        35.26853         0.33234
C         28.13547        37.42770        -0.13078
C         26.95349        38.13074        -0.05386
C         28.17268        40.29398        -0.37409
C         26.91344        39.57758        -0.21512
C         28.13360        41.80190        -0.33105
C         26.89375        42.40415        -1.10679
C         28.17096        44.61569        -0.95529
C         26.90263        43.87872        -0.68305
C         28.15893        46.02265        -1.00561
C         26.86745        46.73786        -1.10087
C         28.19340        48.92269        -0.79448
C         26.89399        48.26212        -1.00862
C         28.19609        50.31535        -0.49448
C         26.97543        50.99332        -0.25323
C         28.28819        53.18649        -0.09837
C         27.03305        52.41880         0.10245
C         28.26554        54.59925         0.00031
C         27.06487        55.36045        -0.01017
C         27.01203        56.75606         0.02086
C         29.33407        12.45905        -0.11313
C         30.47748        14.60523         0.00383
C         29.33489        13.89933        -0.39765
C         30.61354        16.00795        -0.17779
C         29.47760        16.73454        -0.67100
C         30.70183        18.84597        -0.27526
C         29.68442        18.12597        -0.94864
C         30.60961        20.25463         0.18627
C         29.38358        21.08001         0.10007
C         30.59859        23.19834         0.43979
C         29.36239        22.46076         0.26419
C         30.58923        24.58141         0.58245
C         29.33193        25.30537         0.63715
C         30.55288        27.44774         1.19321
C         29.31636        26.70734         0.76604
C         30.60682        28.89478         0.77715
C         29.33890        29.48627         0.19145
C         30.63098        31.62643        -0.09994
C         29.31439        30.98385         0.23451
C         30.59600        33.12091        -0.10472
C         29.41158        33.82704         0.04655
C         30.64922        35.94818        -0.27658
C         29.38212        35.26858        -0.11252
C         30.66353        37.41101        -0.51044
C         29.38106        38.16539        -0.44725
C         30.67178        40.36448        -0.19477
C         29.37190        39.64300        -0.32594
C         30.67132        41.89567        -0.22058
C         29.42154        42.39786        -0.95140
C         30.60973        44.62096        -1.03963
C         29.39031        43.91683        -0.96202
C         30.60948        46.03412        -1.05973
C         29.38057        46.74924        -1.02981
C         30.65141        48.88988        -0.78613
C         29.38841        48.19307        -0.90459
C         30.64649        50.30157        -0.60178
C         29.45622        51.02920        -0.44407
C         29.46417        52.45034        -0.29361
C         31.83005        16.69911         0.07834
C         33.10820        18.84258         0.27588
C         31.87869        18.11076         0.10179
C         33.17453        20.24229         0.26550
C         31.90467        20.98642         0.42812
C         33.20574        23.19645         0.45631
C         31.88802        22.47177         0.27668
C         33.06831        24.61316         0.87093
C         31.83781        25.31378         0.75241
C         33.03948        27.45035         1.07938
C         31.83883        26.71685         0.94027
C         33.03428        28.91079         1.14017
C         31.76614        29.60299         0.92432
C         33.04697        31.78208         0.69661
C         31.71302        31.12449         0.91412
C         33.11877        33.13029         0.30800
C         31.91769        33.78428        -0.39089
C         33.09107        36.04170        -0.06527
C         31.84177        35.27512        -0.23760
C         33.13346        37.46385        -0.47319
C         31.95643        38.13453        -0.51203
C         33.20596        40.31041        -0.79560
C         31.94584        39.61296        -0.39565
C         33.16057        41.77625        -1.06831
C         31.90631        42.53980        -0.84434
C         33.09874        44.60636        -1.60738
C         31.86989        43.87491        -1.11354
C         33.07196        46.06199        -1.21479
C         31.88174        46.75259        -1.04868
C         31.85621        48.17005        -0.86943
C         34.38572        20.98310         0.26359
C         35.75116        22.99522         0.29001
C         34.48341        22.38236         0.45099
C         36.01488        24.32235         0.74615
C         34.15156        25.35149         1.36714
C         35.59270        27.39243         1.50348
C         34.24314        26.73939         1.28245
C         35.51010        28.89254         1.23794
C         34.24025        29.59183         1.24372
C         35.53371        31.76313         1.02804
C         34.22463        31.10449         1.39186
C         35.53353        33.27098         1.07611
C         34.31432        33.86419         0.42303
C         35.63830        36.05182         0.11116
C         34.34882        35.33161         0.27429
C         35.67630        37.39634        -0.27080
C         34.45700        38.12213        -0.79962
C         35.75771        40.37720        -0.50052
C         34.46503        39.60749        -0.54693
C         35.70606        41.72523        -1.29266
C         34.43465        42.54231        -1.09512
C         34.38989        43.88206        -1.26133
C         36.80875        25.34484         0.26196
C         37.88407        27.48647         0.51225
C         36.75944        26.72556         0.72095
C         37.95332        28.89457         0.83914
C         36.67995        29.59576         1.01772
C         37.97714        31.68707         0.44857
C         36.67445        31.04441         0.86763
C         37.99210        33.19236         0.54260
C         36.81448        33.92032         0.59263
C         38.09820        35.99257         0.16564
C         36.84499        35.32982         0.33475
C         38.10430        37.38631        -0.11859
C         36.92289        38.08110        -0.34834
C         36.97024        39.48821        -0.92164
C         39.14389        29.56831         0.89277
C         40.44926        31.73685         0.78801
C         39.16058        31.04795         1.18249
C         40.46992        33.03839         0.43749
C         39.25377        33.85064         0.38658
C         39.29900        35.23287         0.24744
O         14.99203        43.96256         1.39628
O         20.56264        32.14220        -0.40823
O         15.82778        37.22155         2.32400
O         17.99332        45.26915         1.95142
O         13.53439        38.24288         1.84964
O         31.16353        20.46081         1.56355
O         28.42177        18.60770         1.44262
O         26.79432        47.58237        -2.30301
O         24.81567        38.83894         1.64697
O         16.24776        33.69287         2.78749
O         33.07872        40.83188        -2.23748
O         20.24898        35.97092         2.11390
O         33.53124        35.95672         1.37285
O         22.76938        29.34474         3.13141
O         13.92073        34.71723         2.46296
O         27.56557        20.76611        -1.43125
O         29.92473        37.72372        -1.77102
O         11.71273        24.92349        -1.69768
O         23.31600        23.64193         2.54959
O         10.51916        31.40575        -2.00346
O         22.17725        38.87037        -1.23204
O         21.51588        20.73061        -0.91341
O         26.37923        52.78869         1.37510
O         22.55235        46.06445        -2.11019
O         32.61150        22.97237        -0.89123
O         17.87296        27.96749         2.99612
O         21.98379        34.44266        -0.76619
O         19.14560        51.66276         1.62112
O         14.61089        31.20317         2.46438
O         25.17403        54.90668        -1.50316
O         20.35661        14.06628         1.69723
O         26.22910        14.67324        -2.44231
O         19.09473        33.39947         2.52717
O         27.93104        11.94501        -1.94654
O         13.82924        42.34982        -1.86696
O         13.41882        31.44974        -1.10835
O         26.43206        44.23890         0.64275
O         21.52694        50.60194         1.52241
O         35.24484        24.65269         1.88547
O         25.00024         9.93586        -2.41800
O         31.47129        39.92904         0.97874
O         17.29537        43.57942        -1.30889
O         16.77287        17.15437         2.10447
O         20.01886        29.40847         3.26540
O         20.23245        11.50559         1.27331
O         25.39043        37.23192        -1.58719
H         26.19093        36.87227        -2.02388
O         31.25992        31.54638         2.22630
H         32.04239        31.47421         2.82900
O         19.92486        47.04435         2.21109
H         19.66209        46.21591         2.67708
O         16.65871        13.40625         1.91249
H         16.64795        14.25191         2.41039
O         35.44623        33.62506         2.51398
H         36.32695        33.44720         2.91025
O         18.60185        18.90620         2.52122
H         18.14562        18.13864         2.94459
O         33.04846        44.60352        -3.07508
H         32.94592        43.67050        -3.36211
O         37.05008        39.32826        -2.33904
H         36.25878        38.81027        -2.62348
O         21.56377        27.17129        -0.09225
H         22.21774        26.76239        -0.69785
O         11.61578        40.10089         1.40795
H         12.22402        39.59053         1.99861
O         38.16908        31.37352        -0.96053
H         37.47081        31.83017        -1.47407
O         18.48754        50.47991        -1.77217
H         17.82909        49.91114        -2.22119
O         26.36895         5.52435         0.49919
H         25.80557         5.81308         1.24627
O         38.94372        31.26521         2.60493
H         39.62244        30.75921         3.09776
O         25.97006        33.55717         2.69911
H         25.47926        32.87206         3.21788
O         16.72507        37.76689        -1.18471
H         17.02988        38.49235        -1.77250
O         21.16403        53.27687         2.04304
H         20.82583        52.42955         2.42427
O         11.38238        40.20551        -2.22792
H         10.80777        40.72736        -2.82533
O         29.36932        29.07928        -1.22148
H         30.03557        29.66113        -1.66465
O         23.35090        18.39987         2.07903
H         24.12699        18.87754         2.44451
O         35.98187        40.78058         0.88775
H         35.88189        39.98789         1.45631
O         28.95744        18.72045        -1.93120
H         28.31207        18.08729        -2.30703
O         20.16157        43.97615         1.95016
H         19.55518        43.51979         2.57067
O         31.06046        31.15946        -1.41535
H         31.63357        31.86849        -1.81054
O         30.42129        27.49010         2.66836
H         31.18920        27.99195         3.01795
O         17.97182        31.63491        -0.44733
H         18.86119        31.82871        -0.84635
O         16.08585        41.38618        -2.06123
H         16.30208        42.22138        -2.53333
O         30.63342        42.35060         1.15676
H         31.13113        41.68255         1.68669
O         32.21372        33.56485        -1.84071
H         31.57363        34.10441        -2.35490
O         25.03676        41.16954        -2.08666
H         25.72078        41.47880        -2.75363
O         19.08132        21.25897        -1.24056
H         19.95197        21.38439        -1.68995
O         20.67728        49.06726        -1.68171
H         20.98009        48.21759        -2.07493
O         22.90004        40.48826         1.99381
H         23.51022        39.87479         2.46903
O         12.21127        46.82037        -0.57045
H         12.45186        46.69563        -1.51108
O         27.98477        42.18108         1.03970
H         28.88071        42.37178         1.41678
O         20.90244        26.91614         3.47902
H         20.35906        27.52067         4.03475
O         23.47054        15.47895         1.56542
H         23.40113        16.27714         2.13967
O         35.76565        41.49943        -2.69991
H         34.89186        41.13484        -2.97399
O         23.42034        10.01712         0.94060
H         22.65535        10.42697         1.40164
O         15.09370        26.85025        -1.37001
H         14.39456        26.44862        -1.92946
O         18.23384        35.66061        -0.85171
H         17.58821        36.24529        -1.32481
O         22.73750        15.18881        -2.00598
H         23.02226        14.53852        -2.68257
O         27.11692        42.38519        -2.47775
O         25.05187        20.50933        -1.65928
H         25.85213        20.48383        -2.23362
O         10.68062        27.44698         1.63638
H          9.82618        27.88956         1.82705
O         29.58941        41.91609        -2.29048
H         28.71181        42.06544        -2.75511
O         21.47744        52.58610        -1.53438
H         22.13989        52.13313        -2.09708
O         34.56761        37.99896        -2.28672
H         33.87795        38.58431        -2.67507
O         24.62098        31.24797         3.19211
H         23.92470        30.66208         3.59087
O         18.33739         7.55236        -1.25049
H         18.33680         7.46785        -0.27510
O         33.96433        31.37465         2.81958
H         34.33346        32.28167         2.99905
O         35.92772        27.23452         2.91079
H         35.92868        26.26698         3.08942
O         18.33176        37.84334         2.16992
H         17.54856        37.46757         2.64339
O         20.24343        44.69262        -1.63091
H         21.02863        45.11264        -2.10205
H          5.05420        31.20625        -0.88540
H          5.06699        33.67733        -1.00274
H          7.47310        26.93220        -0.64666
H          6.28987        29.07519        -0.73758
H          6.28108        35.79888        -1.00435
H          7.45126        37.92879        -1.00839
H          9.93372        22.56244        -0.16661
H          8.68395        24.80282        -0.70614
H          8.64939        40.08454        -1.09575
H          9.82079        42.33311        -0.47193
H         12.39986        18.28940        -0.11220
H         11.15821        20.43257        -0.14994
H         11.07205        44.52673        -0.21337
H         12.82088        46.24955         1.30177
H         14.87353        14.03277        -0.30837
H         13.63609        16.19494        -0.21887
H         13.60270        48.79510        -0.04080
H         14.83517        50.94048         0.02799
H         17.37655         9.83813        -1.08042
H         16.15407        11.94141        -0.60076
H         16.07507        53.09830        -0.09732
H         17.37858        55.25730        -0.23433
H         19.78500         5.58797        -1.51197
H         19.43217         8.41692        -2.75520
H         18.63391        57.38016        -0.14855
H         19.89265        59.51642        -0.05755
H         23.03987         2.11119        -0.90242
H         20.94001         3.40730        -1.24739
H         23.33711        62.85846         0.10454
H         21.16277        61.65499         0.02103
H         25.22415         3.28979        -0.65966
H         26.38753         5.54972        -1.55384
H         26.71828        59.45641         0.11007
H         25.48646        61.61039         0.12320
H         27.81207         7.58300        -0.49262
H         28.94691         9.53980         0.12602
H         29.22522        55.13819         0.00117
H         27.94988        57.32394         0.11349
H         29.97944        12.13467         0.71776
H         31.32146        14.04650         0.43468
H         31.60916        50.83299        -0.56262
H         30.42647        52.97985        -0.35958
H         32.73341        16.12078         0.31931
H         34.04494        18.26639         0.32891
H         34.02270        46.61855        -1.21366
H         32.81111        48.71491        -0.81470
H         35.32751        20.42029         0.16689
H         36.55435        22.40997        -0.18545
H         36.60350        42.32637        -1.00296
H         35.32813        44.45119        -1.36199
H         37.52571        25.12197        -0.54378
H         38.78358        27.01711         0.08357
H         39.06917        37.90309        -0.23120
H         37.90863        40.00061        -0.59014
H         40.09108        29.02932         0.73323
H         41.38982        31.16660         0.84973
H         41.42454        33.53571         0.20595
H         40.26780        35.74505         0.15100
