         620
 CSIRO Nanostructure Databank - Neutral Graphene Oxide Data Set
C         23.16911        27.43343         1.56251
C         23.15344        28.79557         1.32780
C         23.12171        31.67228         0.86816
C         23.08793        33.03740         0.64876
C         23.00400        35.89611        -0.00279
C         22.97026        37.27248        -0.17532
C         23.04754        40.15964        -0.92203
C         23.09203        41.53104        -1.21007
C         23.22204        44.38468        -1.85687
C         23.32722        45.67890        -2.30208
C         25.57782        24.58279         1.69955
C         24.39733        25.28023         1.68426
C         25.54760        27.36483         1.03047
C         24.36595        26.69530         1.41038
C         25.54357        28.76239         0.80815
C         24.32831        29.49177         0.95264
C         25.49471        31.59908         0.29818
C         24.30864        30.92258         0.70326
C         25.44314        33.00034         0.06567
C         24.24634        33.73519         0.23973
C         25.43265        35.89999        -0.19189
C         24.21902        35.17710         0.00319
C         25.39329        37.30845        -0.30452
C         24.16656        38.01218        -0.31007
C         25.40675        40.17907        -0.24765
C         24.17930        39.45508        -0.49319
C         25.33133        41.66050        -0.19708
C         24.21782        42.31836        -0.91495
C         25.57630        44.41434        -1.10205
C         24.32758        43.69645        -1.27268
C         25.67791        45.77606        -1.59422
C         24.56309        46.39037        -2.20501
C         25.86882        48.39506        -2.65867
C         24.67974        47.71067        -2.72905
C         28.14892        23.18584         1.95723
C         28.05738        24.56144         1.55275
C         26.82172        25.20177         1.37008
C         28.04873        27.33443         0.74879
C         26.76660        26.54655         0.68694
C         28.00247        28.73875         0.43994
C         26.77332        29.45148         0.46353
C         27.96021        31.53899        -0.03818
C         26.74887        30.86272         0.20601
C         27.96645        32.97109        -0.38766
C         26.64877        33.72421        -0.37566
C         27.91772        35.85669        -0.31018
C         26.69759        35.19601        -0.26712
C         27.95269        37.32683        -0.44912
C         26.64322        38.06960        -0.47531
C         27.88856        40.18835         0.16030
C         26.61333        39.51186        -0.15544
C         27.89729        41.70143         0.24872
C         26.61384        42.44395         0.01007
C         27.92053        44.59228        -0.15003
C         26.69783        43.80130        -0.54083
C         28.05121        45.89283        -0.89630
C         26.91586        46.49517        -1.50226
C         28.23733        48.55297        -1.87390
C         27.01767        47.81444        -2.04460
C         28.41996        49.86931        -2.45737
C         30.59565        23.26360         1.97902
C         29.35111        22.55404         2.10235
C         30.51476        24.66489         1.66511
C         29.29882        25.28344         1.36784
C         30.50088        27.35128         0.60651
C         29.26036        26.67691         0.93749
C         30.44013        28.70036         0.10703
C         29.23300        29.42206         0.14837
C         30.41289        31.59902        -0.14659
C         29.21292        30.85755        -0.04257
C         30.43046        33.03260        -0.12992
C         29.20879        33.74393        -0.22708
C         30.40974        35.88702        -0.13950
C         29.18371        35.15724        -0.24279
C         30.41306        37.33094        -0.04275
C         29.19572        38.05623        -0.11364
C         30.39318        40.16173         0.21078
C         29.17903        39.45535         0.01885
C         30.42712        41.64334         0.03938
C         29.17395        42.42455         0.02695
C         30.45767        44.53555        -0.03627
C         29.21074        43.78611        -0.13946
C         30.43563        45.93085        -0.23260
C         29.25827        46.58934        -0.79017
C         30.46000        48.77244        -0.76840
C         29.31632        47.95220        -1.19984
C         30.53835        50.20887        -1.25524
C         29.52892        50.62135        -2.24174
C         33.10901        20.51338         1.86157
C         31.91698        21.18290         1.98197
C         33.12228        23.35101         2.39163
C         31.83992        22.60000         2.07926
C         33.09159        24.81510         1.88254
C         31.76647        25.44555         1.55729
C         32.97658        27.22886         0.23885
C         31.71529        26.67690         0.74920
C         32.97451        28.64662        -0.26616
C         31.66471        29.37119        -0.34699
C         32.95514        31.60035        -0.18438
C         31.67297        30.89397        -0.38859
C         32.92076        33.04513        -0.09640
C         31.66543        33.75130        -0.11889
C         32.87918        35.91493        -0.02089
C         31.64660        35.17971        -0.09471
C         32.88465        37.32697         0.15575
C         31.62608        38.04264         0.18014
C         32.83033        40.16603         0.79458
C         31.60215        39.45220         0.33278
C         32.89850        41.66654         0.75900
C         31.71629        42.40855         0.22359
C         32.80620        44.60573         0.77941
C         31.67837        43.88475         0.35645
C         32.72142        46.04331         0.68668
C         31.61172        46.68204         0.04093
C         32.84940        48.80334        -0.07698
C         31.66806        48.08377        -0.25159
C         32.97893        50.21946        -0.49220
C         31.85045        50.94022        -1.14624
C         32.88152        53.13000        -0.59893
C         31.85461        52.42705        -1.10662
C         35.61851        19.12698         1.17462
C         35.59837        20.45963         1.62111
C         34.37443        21.20699         1.83005
C         35.64237        23.35140         2.03006
C         34.38218        22.59342         1.99594
C         35.62246        24.80704         1.61490
C         34.31965        25.43342         1.28830
C         35.50924        27.24513        -0.00602
C         34.27131        26.60944         0.60918
C         35.44302        28.76614         0.00216
C         34.22925        29.42958        -0.16751
C         35.41204        31.59352         0.06823
C         34.14508        30.87331        -0.11980
C         35.39954        33.10589         0.06075
C         34.11268        33.79116        -0.06430
C         35.35347        35.93652        -0.01904
C         34.11954        35.21613        -0.04885
C         35.35359        37.34188         0.15490
C         34.11271        38.01491         0.29316
C         35.43369        40.15855         0.87234
C         34.12320        39.40306         0.79740
C         35.44845        41.67022         1.18827
C         34.17014        42.39744         0.83290
C         35.38271        44.53414         0.99255
C         34.06105        43.84093         1.31589
C         35.54375        45.84945         1.26234
C         33.74287        46.93976         1.11930
C         35.27884        48.88106         0.63162
C         33.96425        48.20471         0.57229
C         35.31070        50.28959         0.49574
C         34.03567        51.00072         0.23152
C         35.32007        53.19940         0.26518
C         34.02049        52.49211         0.12095
C         35.36492        54.59621         0.12762
C         38.08635        19.03339         1.16611
C         36.80507        18.42418         0.99399
C         38.13204        20.38778         1.50737
C         36.89845        21.09355         1.85957
C         38.17034        23.31646         1.53295
C         36.95484        22.62092         1.99925
C         38.11333        24.70199         1.19853
C         36.86463        25.42634         1.11749
C         37.99733        27.46799         0.40947
C         36.80658        26.70705         0.56032
C         37.97410        28.82819         0.04828
C         36.69081        29.49790        -0.05454
C         37.86367        31.61861        -0.57556
C         36.66302        30.87531        -0.18803
C         37.83144        33.14537        -0.64828
C         36.61600        33.85666        -0.26482
C         37.83129        35.98401        -0.37118
C         36.60593        35.24384        -0.20433
C         37.81028        37.40161        -0.26727
C         36.59972        38.08048         0.09104
C         37.75224        40.22472        -0.12737
C         36.61672        39.48667         0.26852
C         37.65790        41.69644        -0.18439
C         36.53371        42.40782         0.43538
C         37.76539        44.54011         0.32362
C         36.56128        43.82750         0.48143
C         37.86751        45.97867         0.79482
C         36.54067        46.66621         0.49129
C         37.73873        48.86272         0.59552
C         36.50667        48.16612         0.67481
C         37.73299        50.27767         0.65556
C         36.52228        51.01174         0.59283
C         37.73658        53.20394         0.61833
C         36.52077        52.48007         0.51464
C         37.76892        54.61470         0.47535
C         36.55838        55.29462         0.23119
C         40.49641        16.15346         0.66075
C         39.31639        16.86807         0.78676
C         40.57543        18.93437         1.01819
C         39.32203        18.27046         0.98101
C         40.67117        20.38427         1.33079
C         39.39871        21.13960         1.62808
C         40.56561        23.26213         0.93910
C         39.38393        22.60756         1.38774
C         40.54582        24.67728         0.74193
C         39.32001        25.36647         0.87713
C         40.55574        27.56778         0.44782
C         39.27122        26.83017         0.76795
C         40.45577        28.93930        -0.06531
C         39.19368        29.58164        -0.11236
C         40.34766        31.71844        -0.62094
C         39.16725        30.97023        -0.44309
C         40.31792        33.16269        -0.73614
C         39.10379        33.87143        -0.63442
C         40.28238        36.02508        -0.73183
C         39.06784        35.29344        -0.56744
C         40.24807        37.44942        -0.73693
C         39.01780        38.13966        -0.48242
C         40.19263        40.30179        -0.68216
C         38.97076        39.56584        -0.45684
C         40.22433        41.71717        -0.54222
C         38.96728        42.46386        -0.36944
C         40.25239        44.62332        -0.16923
C         39.06919        43.80744         0.31364
C         40.24411        46.04859        -0.06440
C         39.05289        46.75596         0.29773
C         40.23018        48.90131         0.17364
C         39.01217        48.15283         0.36977
C         40.26375        50.29696         0.42743
C         39.01972        50.97738         0.82426
C         40.27457        53.19868         0.61150
C         39.00834        52.49544         0.86149
C         40.26221        54.62220         0.59281
C         39.03001        55.34083         0.58304
C         40.26301        57.44296         0.72925
C         39.06522        56.75281         0.65238
C         42.98664        16.10077         0.57233
C         41.74968        16.81499         0.67810
C         43.07352        18.96624         0.92518
C         41.76480        18.22631         0.81422
C         42.98206        20.39428         0.41769
C         41.83257        21.12747         0.79819
C         42.91670        23.19954         0.08117
C         41.77403        22.52575         0.62119
C         42.91283        24.62371        -0.04300
C         41.74230        25.37347         0.30854
C         42.88776        27.46275        -0.36320
C         41.74960        26.77406         0.13437
C         42.86746        28.88841        -0.53962
C         41.63773        29.61964        -0.41739
C         42.81739        31.75242        -0.81012
C         41.61141        31.03844        -0.63201
C         42.79517        33.19566        -0.91228
C         41.54317        33.89423        -0.85695
C         42.73267        36.04742        -1.10731
C         41.51797        35.31812        -0.90442
C         42.70061        37.47477        -1.20758
C         41.44921        38.18468        -1.00389
C         42.57562        40.38402        -1.35454
C         41.38949        39.59602        -0.99159
C         42.63659        41.80824        -0.98572
C         41.42744        42.46439        -0.62403
C         42.64490        44.61521        -0.73276
C         41.43125        43.91058        -0.49376
C         42.59679        46.07674        -0.82928
C         41.41017        46.80423        -0.37141
C         42.68319        48.94064        -0.23046
C         41.43997        48.21245        -0.18744
C         42.69710        50.35243         0.06741
C         41.47081        51.03476         0.35204
C         42.72715        53.18588         0.48386
C         41.48360        52.47383         0.50361
C         42.73611        54.61263         0.62666
C         41.50260        55.32932         0.63751
C         42.74166        57.44098         0.81600
C         41.50064        56.75096         0.72368
C         44.19542        16.77373         0.44415
C         45.39990        18.88920        -0.04954
C         44.25293        18.17846         0.42072
C         45.08945        20.12639        -0.87346
C         44.05414        21.02524        -0.21821
C         45.17758        23.13566        -0.92928
C         44.04887        22.44713        -0.38270
C         45.22326        24.55124        -0.93074
C         44.06768        25.30218        -0.52732
C         45.24543        27.42081        -1.07345
C         44.07083        26.72412        -0.65978
C         45.24829        28.84496        -1.13253
C         44.05204        29.58093        -0.89163
C         45.25777        31.72183        -1.15682
C         44.05562        31.02807        -0.95168
C         45.30916        33.20744        -0.85962
C         43.99333        33.92360        -1.04023
C         45.19224        36.07062        -1.42393
C         43.97644        35.34172        -1.18756
C         45.14155        37.46878        -1.59101
C         43.91287        38.16950        -1.45351
C         45.12159        40.40733        -1.41818
C         43.88429        39.64166        -1.61437
C         45.10608        41.78499        -1.17051
C         43.86005        42.50420        -1.02485
C         45.13347        44.63479        -0.76813
C         43.87940        43.93393        -0.86989
C         45.17486        46.04834        -0.67028
C         43.94271        46.83655        -0.82964
C         45.15534        48.88702        -0.23435
C         43.91397        48.24604        -0.41707
C         45.17399        50.36651        -0.18453
C         43.91594        51.08269         0.07655
C         45.20848        53.19374         0.50172
C         43.95540        52.47801         0.33530
C         45.20748        54.59352         0.76963
C         43.96292        55.32659         0.74631
C         43.93065        56.74562         0.83872
C         47.79832        19.05858        -0.57002
C         46.68651        18.39314         0.02993
C         47.65185        20.20858        -1.29973
C         46.32748        20.85925        -1.37920
C         47.63067        23.05437        -1.63277
C         46.32556        22.36500        -1.46649
C         47.55933        24.51092        -1.83761
C         46.38525        25.26487        -1.38226
C         47.65186        27.38973        -1.67978
C         46.42344        26.67150        -1.40156
C         47.62819        28.82162        -1.71723
C         46.45622        29.54655        -1.46129
C         47.64532        31.70058        -1.70962
C         46.46436        30.99954        -1.44806
C         47.61099        33.15231        -1.90405
C         46.44512        33.93518        -1.52197
C         47.66637        36.03603        -1.83682
C         46.44840        35.33906        -1.59567
C         47.71781        37.51154        -1.92673
C         46.37990        38.22986        -1.92800
C         47.67204        40.36645        -1.23076
C         46.38473        39.70799        -1.68173
C         47.52384        41.68272        -0.55972
C         46.32535        42.48682        -0.84437
C         47.60742        44.53951        -0.32119
C         46.34826        43.86627        -0.60879
C         47.63463        46.00438        -0.26156
C         46.38566        46.74368        -0.40928
C         47.61507        48.83557         0.15342
C         46.36060        48.15295        -0.24728
C         47.67752        50.30248         0.37476
C         46.46560        51.10080         0.04198
C         47.67881        53.15199         0.74479
C         46.45101        52.50986         0.46873
C         47.63709        54.53130         1.05814
C         46.44212        55.22878         1.05109
C         50.11527        20.21527        -1.83505
C         48.78687        20.87510        -2.06418
C         50.08912        23.08845        -1.83156
C         48.81546        22.37822        -1.81674
C         50.12785        24.50132        -1.85549
C         48.88140        25.26120        -2.03339
C         50.13494        27.40654        -1.85871
C         48.87508        26.71109        -1.83562
C         50.14006        28.79306        -1.96463
C         48.87038        29.50956        -2.09990
C         50.18305        31.74102        -1.87329
C         48.89088        31.03582        -2.12201
C         50.19370        33.14419        -1.75813
C         48.95607        33.86653        -2.08514
C         50.25172        36.08353        -1.54486
C         48.91503        35.34711        -2.01620
C         50.07845        37.44277        -1.06889
C         48.94654        38.19477        -1.39564
C         50.06718        40.26465        -0.59126
C         48.90125        39.58198        -1.01635
C         50.08601        41.64209        -0.30742
C         48.81504        42.38551        -0.17608
C         50.13445        44.55364        -0.34560
C         48.79993        43.84221        -0.21296
C         50.06943        45.89968         0.36373
C         48.83080        46.65405        -0.04996
C         50.18663        48.85340         0.05728
C         48.89276        48.12383        -0.11368
C         50.18319        50.29818         0.40944
C         48.97434        51.02108         0.44714
C         50.19879        53.06141         0.84687
C         48.95411        52.41755         0.67687
C         51.25831        20.90839        -1.67437
C         52.53933        23.05234        -1.54371
C         51.30936        22.36057        -1.68408
C         52.57364        24.48619        -1.56658
C         51.35002        25.21198        -1.71335
C         52.59658        27.32473        -1.64192
C         51.37387        26.64913        -1.76158
C         52.67671        28.78673        -1.81628
C         51.38892        29.56569        -2.03792
C         52.56508        31.65354        -1.25923
C         51.38013        31.00928        -1.71194
C         52.53484        33.05782        -0.97871
C         51.36144        33.83148        -1.28976
C         52.47783        35.88064        -0.44928
C         51.35954        35.23976        -1.07220
C         52.46762        37.27955        -0.19026
C         51.16590        38.05614        -0.20991
C         52.50714        40.15599         0.09212
C         51.37352        39.50028        -0.65541
C         52.46375        41.54512         0.32904
C         51.29883        42.32019         0.05638
C         52.49056        44.45483         0.46072
C         51.32559        43.75274         0.14781
C         52.57237        45.90399         0.39994
C         51.37444        46.66819         0.26426
C         52.65805        48.75648         0.47389
C         51.42069        48.06039         0.28896
C         52.67010        50.18524         0.60663
C         51.41876        50.95382         0.60795
C         51.39134        52.34936         0.82563
C         54.96456        23.02095        -1.19885
C         53.78174        22.35655        -1.34991
C         55.04205        24.45445        -1.25747
C         53.80986        25.18456        -1.43858
C         55.02568        27.34391        -1.25152
C         53.81860        26.61480        -1.44732
C         55.01328        28.74027        -1.01621
C         53.82980        29.50033        -1.24844
C         54.89707        31.53725        -0.38389
C         53.77097        30.89035        -1.00148
C         54.80511        32.90210        -0.03418
C         53.66706        33.69242        -0.37854
C         54.75578        35.77905         0.46746
C         53.64171        35.11031        -0.11400
C         54.80690        37.18676         0.57022
C         53.63396        37.94509         0.24056
C         54.87333        40.05501         0.76198
C         53.64218        39.38501         0.41050
C         54.89873        41.43679         0.90467
C         53.64483        42.19006         0.90599
C         54.98336        44.40692         0.90643
C         53.67613        43.72912         0.93841
C         55.02344        45.78631         0.70265
C         53.82086        46.56596         0.53133
C         55.10777        48.71088         0.72911
C         53.87396        48.00659         0.56088
C         55.09480        50.10094         0.83687
C         53.89914        50.82581         0.78806
C         57.51493        24.45946        -0.95693
C         56.26658        25.13495        -1.13807
C         57.48221        27.30308        -0.70054
C         56.33333        26.62212        -1.39697
C         57.42362        28.68792        -0.38721
C         56.19662        29.42181        -0.54582
C         57.28323        31.40791         0.38592
C         56.11857        30.78153        -0.16305
C         57.16327        32.74692         0.99939
C         55.85266        33.49690         0.82089
C         57.11947        35.66466         1.48705
C         55.83315        34.97080         1.07066
C         57.19991        37.13251         1.32532
C         56.02611        37.87165         0.98464
C         57.29840        39.96922         1.34670
C         56.08483        39.28538         0.98588
C         57.35909        41.39803         1.39342
C         56.20670        42.16810         0.80866
C         57.38456        44.28803         1.37711
C         56.18014        43.64330         1.13214
C         57.49455        45.69957         1.18830
C         56.33850        46.43707         0.67261
C         57.62770        48.55439         1.27013
C         56.40400        47.98502         0.71108
C         58.67632        25.14609        -0.71266
C         59.82929        27.24462        -0.03523
C         58.66841        26.57691        -0.50244
C         59.79333        28.59527         0.24078
C         58.59363        29.34149         0.09653
C         59.66389        31.43498         0.96628
C         58.51123        30.73209         0.46928
C         59.61701        32.75345         1.32579
C         58.39553        33.50319         1.31894
C         59.57243        35.62298         1.81945
C         58.37523        34.88199         1.55096
C         59.57945        36.98753         1.90364
C         58.40937        37.78017         1.63164
C         59.62021        39.90951         2.12003
C         58.46019        39.21752         1.68756
C         59.63436        41.28601         2.21454
C         58.51486        42.05404         1.81664
C         59.86605        44.22320         1.69233
C         58.54904        43.55679         2.01164
C         59.92528        45.56173         1.51339
C         58.72126        46.36127         1.35610
C         58.75539        47.79035         1.42367
O         56.08398        35.29530         2.47254
O         27.87206        40.90236         1.46680
O         38.05643        42.31508        -1.47994
O         27.37038        37.78341        -1.73574
O         49.61563        48.62396        -1.29929
O         48.19602        33.43168        -3.24155
O         47.24189        40.43930        -2.62748
O         48.04822        24.86927        -3.17515
O         32.59193        40.91793         2.02943
O         49.86864        35.93365        -2.93865
O         45.96864        50.91674        -1.32306
O         53.42753        42.94875         2.15467
O         39.07298        51.70008         2.10643
O         32.45756        25.69575         2.86543
O         47.50516        49.38814         1.52834
O         46.01938        21.51967        -2.66528
O         40.05473        27.48198         1.83235
O         35.50781        32.35280         1.34588
O         47.93305        41.75040         0.83378
O         31.57820        30.08326        -1.62315
O         56.60782        47.23182        -0.52455
O         27.22962        33.24415        -1.63729
O         43.19758        46.59038        -2.06310
O         25.63879        42.28472         1.10045
O         33.55782        51.81002         1.35458
O         40.29957        20.70316         2.71832
O         47.06689        37.93835        -3.17987
O         35.67572        24.42622         3.04370
O         37.65611        32.31477        -1.86559
O         32.97052        27.53331        -1.23111
O         30.00581        49.90712         0.07430
O         43.05385        40.11753        -2.72425
O         34.64456        46.50712         2.09322
O         56.11624        32.74232         2.04323
O         34.90269        39.44491         2.04354
O         31.31094        41.97024        -1.11531
O         52.27213        29.23137        -3.15975
O         48.78915        30.27610        -3.36471
O         37.08069        21.78126         3.17350
O         32.95526        50.40181        -1.95979
O         56.65491        26.72802        -2.84696
H         57.50284        26.25300        -2.98448
O         43.33437        19.10916         2.37095
H         42.53477        19.50804         2.78007
O         49.89934        45.59925         1.78024
H         49.80337        46.44173         2.27121
O         35.74025        41.79609         2.62271
H         35.31664        41.01468         3.05354
O         26.60983        26.22062        -0.75363
H         26.56092        27.07188        -1.23962
O         35.54454        26.83398        -1.40882
H         34.66287        27.07912        -1.79074
O         33.88232        43.78423         2.75219
H         34.59399        43.18604         3.09519
O         48.49160        20.70230        -3.48060
H         47.59525        21.09088        -3.63167
O         58.35842        43.74040         3.46143
H         58.42118        44.70178         3.64517
O         45.60743        33.28268         0.60232
H         44.84168        32.88685         1.07205
O         56.46426        42.18031        -0.65937
H         56.63107        41.25292        -0.93503
O         38.02911        45.90880         2.25622
H         38.12919        46.82447         2.59554
O         50.68494        38.09551         1.16305
H         50.80048        37.20814         1.56142
O         50.33883        44.82034        -1.75793
H         50.32401        43.97080        -2.24493
O         27.67319        44.97670         1.24951
H         27.35082        44.18246         1.72910
O         33.17862        23.41335         3.84549
H         33.99199        23.92251         4.07241
O         39.37773        43.48883         1.71914
H         39.08164        44.26129         2.25957
O         36.22346        46.43638        -0.91418
H         36.89715        46.89640        -1.45827
O         44.41712        19.58658        -2.05301
H         44.55985        20.23997        -2.77727
O         51.77782        39.44940        -2.05196
H         51.81282        40.36419        -2.39990
H         22.24738        26.91327         1.85953
H         22.20309        29.33278         1.43972
H         22.19539        31.17817         1.18706
H         22.14215        33.57197         0.80522
H         22.05098        35.36409         0.11639
H         22.00053        37.78837        -0.18141
H         22.11929        39.61278        -1.13706
H         22.20917        41.98390        -1.68042
H         22.25621        43.87164        -1.95420
H         22.45896        46.18066        -2.75268
H         25.56132        23.53317         2.02426
H         23.45821        24.78046         1.96191
H         25.92171        49.41282        -3.06731
H         23.80012        48.17571        -3.19687
H         27.22984        22.60510         2.11093
H         27.67076        50.23517        -3.17314
H         29.35695        21.49359         2.38666
H         29.68870        51.55023        -2.80851
H         33.09392        19.41973         1.77276
H         30.98999        20.59603         1.92114
H         32.84450        54.22820        -0.64624
H         30.99887        52.95457        -1.55476
H         34.67382        18.60476         0.97143
H         34.44072        55.15949        -0.05558
H         36.74211        17.37569         0.67612
H         36.54414        56.38530         0.11138
H         40.46638        15.06008         0.55039
H         38.36501        16.32001         0.77008
H         40.26200        58.54011         0.79780
H         38.12847        57.32552         0.66633
H         42.96116        15.00362         0.50771
H         42.74105        58.53853         0.87893
H         45.10537        16.19739         0.21864
H         44.87008        57.30928         0.91266
H         48.79092        18.60257        -0.45065
H         46.87859        17.47538         0.60381
H         48.56166        55.07445         1.29420
H         46.46413        56.30089         1.28695
H         50.15771        19.11846        -1.90062
H         50.24303        54.14607         1.01230
H         52.19486        20.34619        -1.55995
H         52.32635        52.90410         0.97880
H         55.88026        22.43468        -1.04674
H         53.79403        21.25984        -1.31265
H         56.03874        50.65169         0.94649
H         53.95218        51.91795         0.88227
H         57.55062        23.36158        -0.98552
H         57.64618        49.61259         1.56712
H         59.62041        24.60086        -0.57157
H         60.75754        26.67351         0.10827
H         60.70865        29.08351         0.59892
H         60.62904        30.91604         1.02286
H         60.54855        33.23850         1.64499
H         60.51673        35.08720         1.98148
H         60.52757        37.48841         2.13638
H         60.51668        39.35299         2.42177
H         60.53137        41.78849         2.60098
H         60.79507        43.63828         1.75292
H         60.89701        46.06730         1.40630
H         59.69292        48.26882         1.74431
