         470
 CSIRO Nanostructure Databank - Neutral Graphene Oxide Data Set
C         37.76527        50.33789         2.84966
C         36.67966        51.06565         3.30545
C         37.81616        53.12555         2.75593
C         36.70668        52.47080         3.26195
C         40.11002        48.78012         1.98773
C         40.05479        50.22314         1.84749
C         38.92001        50.98099         2.33550
C         40.10079        53.09105         1.74222
C         38.94240        52.40711         2.28022
C         40.16388        54.51082         1.64093
C         42.23862        48.60954         0.75363
C         41.14455        48.02268         1.54014
C         42.26661        50.13267         0.71206
C         41.16146        50.89945         1.32287
C         42.36413        52.99853         0.74829
C         41.20815        52.33380         1.28266
C         42.38044        54.42351         0.62091
C         41.25404        55.15203         1.09445
C         44.69309        45.78686         0.15726
C         43.54290        46.48030         0.51055
C         44.70044        48.61080         0.22841
C         43.51696        47.88770         0.52624
C         44.73449        50.05919         0.24839
C         43.56686        50.79609         0.53222
C         44.69640        52.87822        -0.01777
C         43.54667        52.22867         0.47418
C         44.54156        54.20227        -0.42594
C         43.51804        55.06873         0.00499
C         44.92040        57.17797        -0.32062
C         43.72102        56.48892        -0.13663
C         47.08886        44.49023        -1.04239
C         47.11261        45.78763        -0.48474
C         45.89384        46.47742        -0.11060
C         47.14636        48.59967        -0.21632
C         45.90878        47.89612        -0.02533
C         47.15309        50.03428        -0.28372
C         45.98612        50.73124        -0.03239
C         47.31241        52.90311        -0.26114
C         46.03989        52.21494         0.21136
C         47.41666        54.34820        -0.01007
C         46.44872        55.25531        -0.40583
C         47.43878        57.51841        -0.36098
C         46.26495        56.68360        -0.26516
C         47.47915        58.75356        -1.06975
C         49.48899        44.59517        -1.33951
C         48.25293        43.95526        -1.57023
C         49.58707        45.76873        -0.58146
C         48.35866        46.46604        -0.35030
C         49.62549        48.60919        -0.15962
C         48.36675        47.89499        -0.21995
C         49.68359        49.97774        -0.29862
C         48.43089        50.71556        -0.75231
C         49.79477        52.90052        -0.69803
C         48.46155        52.20066        -0.46757
C         49.86261        54.28617        -0.07174
C         48.70477        54.83319         0.39919
C         49.92724        57.32495        -0.57808
C         48.70926        56.98414         0.01226
C         49.93534        58.58856        -1.27703
C         48.69243        59.27821        -1.46312
C         52.40802        41.28592        -0.57981
C         51.55367        42.00405        -1.33450
C         52.37220        44.16269        -0.43684
C         51.55357        43.45231        -1.25049
C         52.17698        45.59990        -0.04711
C         50.85441        46.33574        -0.02058
C         52.10348        48.55831         0.33623
C         50.78704        47.83091         0.41265
C         52.13483        49.94786         0.29873
C         50.92316        50.71497        -0.07187
C         52.17728        52.86027         0.31297
C         50.96656        52.08468        -0.18495
C         52.28834        54.30643        -0.14260
C         51.10060        55.05866        -0.15586
C         52.36882        57.06394        -0.75452
C         51.12708        56.48355        -0.44427
C         52.44414        58.37368        -1.51477
C         51.17528        59.18307        -1.61512
C         52.52952        61.17561        -2.11777
C         51.30445        60.50990        -2.07628
C         54.98653        39.99690        -0.58913
C         54.85131        41.26443         0.16611
C         53.49628        41.94728         0.17095
C         54.76990        44.17525         0.24262
C         53.41726        43.46203         0.42960
C         54.76557        45.67070         0.12853
C         53.45508        46.44999        -0.13679
C         54.60282        48.47043         0.96359
C         53.33395        47.76553         0.61480
C         54.55728        49.97084         1.00124
C         53.36466        50.64257         0.49992
C         54.76854        52.77494         0.07226
C         53.43739        52.05266         0.10484
C         54.79405        54.24420        -0.09912
C         53.55693        54.94466        -0.27487
C         54.86020        56.98883        -0.73724
C         53.58753        56.34245        -0.57839
C         54.89591        58.47148        -0.77854
C         53.60975        59.23082        -1.07008
C         54.92944        61.31263        -1.41033
C         53.70131        60.61055        -1.56292
C         55.02274        62.71967        -1.62033
C         57.42950        39.95664        -0.30051
C         56.17294        39.43248        -0.86685
C         57.35776        41.36694         0.35770
C         56.07533        42.07129         0.37489
C         57.23578        44.19370         0.82725
C         56.04705        43.45645         0.56800
C         57.11969        45.64488         1.25963
C         55.96788        46.41695         0.60457
C         57.11021        48.45990         1.47238
C         55.90906        47.75817         0.84012
C         57.15533        49.92404         1.01701
C         55.89345        50.74313         1.06588
C         57.19272        52.87909         0.70473
C         55.96195        52.10202         0.53855
C         57.28798        54.21805         0.08360
C         56.03365        54.88384        -0.26892
C         57.33720        56.89428        -1.04128
C         56.04655        56.25836        -0.67028
C         57.38208        58.40071        -1.11112
C         56.14580        59.19362        -0.94956
C         57.39440        61.31476        -1.11029
C         56.15010        60.58995        -1.12732
C         57.45081        62.70246        -1.30567
C         56.22181        63.38955        -1.55892
C         60.04502        37.79182        -2.01348
C         58.84205        38.35218        -1.66497
C         59.88253        40.20244        -0.43640
C         58.73759        39.51245        -0.81543
C         59.82684        41.51518         0.18594
C         58.58601        42.15783         0.41787
C         59.73347        44.22802         1.07829
C         58.51384        43.53829         0.77870
C         59.64933        45.61082         1.69794
C         58.44083        46.39187         1.23523
C         59.68813        48.51929         1.35914
C         58.44347        47.75898         1.22775
C         59.72676        49.90793         1.27686
C         58.46986        50.63522         0.96718
C         59.75808        52.80835         0.75401
C         58.48005        52.13245         1.02421
C         59.75386        54.10387         0.25600
C         58.53466        54.80620        -0.09783
C         59.88343        56.91407        -0.76073
C         58.62382        56.04382        -0.99695
C         59.82391        58.41219        -0.64806
C         58.65285        59.10178        -0.85440
C         59.95067        61.30345        -0.90039
C         58.61255        60.56885        -0.74837
C         59.93295        62.70357        -1.33781
C         58.73655        63.41642        -1.35789
C         60.01605        65.52893        -1.52583
C         58.81372        64.84633        -1.49338
C         62.72225        36.65374        -2.60895
C         62.52108        37.70119        -1.65929
C         61.27752        38.32203        -1.51373
C         62.43512        40.31656        -0.41790
C         61.18502        39.66450        -0.89165
C         62.30023        41.48551         0.50489
C         61.01429        42.21576         0.53012
C         62.20298        44.18420         1.55962
C         60.95999        43.53671         1.03566
C         62.18741        45.67898         1.91845
C         60.93425        46.41531         1.65265
C         62.11230        48.56482         2.03905
C         60.92026        47.78751         1.59193
C         62.16314        50.02902         1.79298
C         60.95853        50.67210         1.37941
C         62.19777        52.78166         1.20559
C         60.98189        52.07243         1.08984
C         62.11525        54.28585         1.03813
C         61.12540        54.68058        -0.07865
C         62.20446        57.01583         0.34507
C         61.11238        56.20219        -0.28661
C         62.26229        58.47713        -0.01125
C         61.07948        59.14204        -0.59628
C         62.46519        61.13904        -1.15079
C         61.15920        60.47696        -0.94496
C         62.50898        62.60726        -1.42853
C         61.20939        63.38793        -1.61181
C         62.54427        65.48807        -1.60907
C         61.26721        64.85674        -1.55420
C         62.65570        66.92666        -1.75810
C         65.11950        36.47309        -2.09362
C         63.95317        36.10540        -2.85400
C         64.98976        37.38935        -1.03472
C         63.66057        38.08159        -0.71839
C         64.87378        40.33439        -0.25733
C         63.74226        39.60211        -0.51507
C         64.83367        41.65196         0.35253
C         63.56324        42.22240         0.81554
C         64.70298        44.34093         1.39121
C         63.51898        43.62558         1.23391
C         64.69632        45.74438         1.77241
C         63.47487        46.39452         1.93559
C         64.70195        48.59402         2.46788
C         63.41733        47.82022         2.27829
C         64.62510        50.09761         2.42030
C         63.36872        50.75301         1.93542
C         64.65846        52.88053         1.63868
C         63.39509        52.13986         1.61192
C         64.64869        54.25700         1.22835
C         63.45962        54.94209         0.86862
C         64.67134        57.07827         0.61532
C         63.48181        56.32978         0.61179
C         64.72131        58.48741         0.35105
C         63.56158        59.14895        -0.01954
C         64.84255        61.32550        -0.15053
C         63.69924        60.49144        -0.59745
C         64.83898        62.72988        -0.44870
C         63.71785        63.36038        -1.07000
C         65.06080        65.39799        -1.38494
C         63.73471        64.74225        -1.34951
C         65.12722        66.87251        -1.71770
C         63.84208        67.58541        -1.78272
C         67.77226        34.12496        -3.39316
C         66.54726        34.73185        -3.20470
C         67.56898        36.36365        -1.70734
C         66.39619        35.84102        -2.33221
C         67.45431        37.38821        -0.70782
C         66.13739        37.64255        -0.22565
C         67.32449        40.16239         0.31498
C         66.25254        39.96733        -0.72476
C         67.23750        41.54117         0.90932
C         65.99180        42.31069         0.73362
C         67.17921        44.32079         1.46161
C         65.96692        43.65994         1.21658
C         67.14664        45.73351         1.70369
C         65.96280        46.44054         1.86904
C         67.16083        48.70142         1.65382
C         66.07086        47.88289         2.37757
C         67.05833        50.07620         1.62485
C         65.96747        50.83614         2.39310
C         67.13594        52.97190         1.90991
C         65.89121        52.26374         1.91751
C         67.05031        54.38116         1.70859
C         65.87301        54.97160         1.22900
C         67.22229        57.16321         0.79272
C         65.91972        56.34787         0.72580
C         67.12732        58.61790         0.90645
C         65.94658        59.26059         0.56215
C         66.92037        61.50375         1.29945
C         65.89446        60.70406         0.51350
C         66.97264        62.97205         0.86425
C         66.00261        63.50538        -0.11880
C         67.39447        65.54060        -0.40635
C         66.16840        64.80075        -0.60747
C         67.53487        66.86673        -0.95675
C         66.40939        67.58248        -1.46951
C         67.84023        69.48079        -1.98193
C         66.56506        68.89539        -1.90091
C         70.29301        32.63376        -3.48871
C         70.22766        33.89572        -2.85894
C         68.95472        34.62874        -2.78320
C         70.05644        36.45701        -1.49571
C         68.84259        35.79243        -2.00222
C         69.93624        37.57451        -0.54620
C         68.65257        38.12212        -0.28272
C         69.77261        40.07166         0.75524
C         68.61444        39.43664         0.25050
C         69.67643        41.38923         1.44501
C         68.46808        42.22856         1.29108
C         69.68803        44.30439         1.80597
C         68.44881        43.59470         1.49211
C         69.69198        45.72108         1.83777
C         68.43269        46.44813         1.51906
C         69.78472        48.56153         1.47776
C         68.43172        47.93149         1.33675
C         69.98407        49.85955         1.01466
C         68.13893        50.94204         1.20188
C         69.76696        52.80444         1.56625
C         68.39750        52.23211         1.69856
C         70.03063        54.14433         1.94999
C         68.16343        55.25155         1.96548
C         69.66781        57.18354         1.45028
C         68.35260        56.49204         1.44911
C         69.57442        58.64066         1.78559
C         68.26966        59.36284         1.48579
C         69.45595        61.51865         1.63446
C         68.29655        60.83270         1.35995
C         69.35842        63.01929         1.92615
C         68.24155        63.75001         1.12896
C         69.73410        65.63432         0.34175
C         68.47825        64.96944         0.30938
C         69.92050        66.85221        -0.32468
C         68.81324        67.50444        -0.95391
C         70.36438        69.23873        -1.97155
C         68.97101        68.79080        -1.56717
C         70.51141        70.68313        -2.39393
C         72.58885        32.33833        -2.79610
C         71.45460        31.86907        -3.46542
C         72.55341        33.58312        -2.17270
C         71.39392        34.37614        -2.20332
C         72.44725        36.20358        -0.69310
C         71.40015        35.74020        -1.61673
C         72.33618        37.39355        -0.04794
C         71.10796        38.16626        -0.01942
C         72.23011        40.16100         1.01021
C         71.03081        39.43101         0.64833
C         72.21426        41.43186         1.48664
C         70.95465        42.10723         1.84723
C         72.06425        44.30552         2.31962
C         70.89984        43.58964         1.99628
C         72.05393        45.69140         2.40268
C         70.88370        46.42584         2.12022
C         72.11068        48.63124         2.16980
C         70.92267        47.88460         1.97671
C         72.18404        49.99960         1.91232
C         71.09308        50.65898         1.31214
C         72.13768        52.86351         0.89160
C         70.97491        52.11766         1.18111
C         72.17299        54.26104         0.92415
C         71.10099        54.94878         1.51677
C         72.12475        57.31249         1.95932
C         70.99342        56.46114         1.52405
C         72.03967        58.67067         2.03574
C         70.81471        59.43074         1.85910
C         71.90293        61.62421         2.16276
C         70.72288        60.82616         1.87466
C         71.89702        62.97260         2.20240
C         70.69265        63.76159         1.87601
C         72.21354        65.58116         0.83729
C         70.85449        65.07007         1.14532
C         72.38080        66.77783         0.25638
C         71.22050        67.57138        -0.20221
C         72.78058        69.41801        -1.21204
C         71.42899        68.85368        -0.95755
C         72.90334        70.57232        -1.90107
C         71.72941        71.26161        -2.41231
O         66.51383        39.83684        -1.91224
O         65.36286        65.85441        -2.75827
O         56.88136        48.32830         2.85490
O         69.13105        54.74395         2.83243
O         57.30251        57.57668        -2.35224
O         57.82152        50.10937        -0.26662
O         54.03364        59.04498         0.29791
O         70.16261        41.36771         2.83580
O         41.81808        49.33768        -0.44917
O         53.93875        41.19629         1.33744
O         68.98085        50.43154         0.21833
O         57.72032        52.75499         2.09818
O         48.72704        56.06036         1.07218
O         54.98779        44.81102        -1.07075
O         62.07426        44.63478         2.95297
O         61.92150        40.66570        -1.75423
O         61.83999        57.98341         1.35877
O         70.43680        56.94064         0.22581
O         68.39693        47.06004         0.15022
O         61.98087        62.87193        -2.76647
O         70.59815        65.03193         2.60533
O         66.88386        40.31819         1.70022
O         64.53815        49.37873         3.69244
O         66.78970        56.56245        -0.46007
O         68.61887        58.90324         2.85530
O         63.40530        60.44923        -2.05008
O         54.13488        52.17885        -1.17708
O         51.38683        45.62177         1.17214
O         62.90292        41.29873         1.81484
O         62.49396        48.10956         3.37891
O         55.06279        50.57344         2.24512
O         57.39499        40.12180         1.14304
O         71.05014        68.89624         0.44806
O         67.06486        63.90552         1.99133
O         53.76232        47.81050         1.99920
O         71.00664        36.76984        -2.58179
O         60.96036        56.54368        -1.69856
O         50.58284        44.07335        -2.04372
O         45.50105        54.71286        -1.29377
O         59.28460        61.12675         0.41820
O         63.20811        37.61922         0.59227
H         63.93705        37.78822         1.23215
O         46.19021        52.33079         1.68262
H         45.47975        51.79563         2.09763
O         52.77763        57.98591        -2.89288
H         52.05166        57.42138        -3.23324
O         66.49089        50.91989         3.74032
H         66.13585        50.13542         4.22738
O         70.68173        68.42552        -3.15232
H         70.05478        68.67069        -3.86497
O         50.48956        47.83628         1.84231
H         51.07298        47.15609         2.25712
O         58.75967        55.45811        -2.31289
H         58.52354        56.15977        -2.96270
O         49.96356        53.05292        -2.13864
H         49.61583        52.22834        -2.55311
O         68.95659        63.04229         3.31937
H         69.09173        63.96394         3.63621
O         66.57675        47.77436         3.74004
H         65.82750        47.52521         4.32307
O         61.57808        54.06823        -1.29524
H         61.14294        54.55421        -2.03481
O         66.45328        61.46979         2.67059
H         67.01871        62.10850         3.17004
O         48.43005        50.62145        -2.22736
H         48.40551        49.66894        -2.46260
O         56.71535        45.60752         2.65734
H         56.74790        46.56533         2.97923
O         53.04901        43.64510         1.80753
H         53.40088        42.87703         2.31205
O         61.53660        54.82620         2.26003
H         62.10912        54.57905         3.01602
O         59.41990        45.35911         3.12085
H         60.25702        44.98171         3.48480
O         52.03213        52.92482         1.76696
H         51.21342        53.42536         1.97071
O         65.90639        38.06073         1.05091
H         66.74127        38.20316         1.54392
O         53.51561        46.87323        -1.52731
H         53.96412        46.15230        -2.02799
H         37.71476        49.24171         2.88591
H         35.79537        50.54573         3.69907
H         37.81188        54.22328         2.72756
H         35.84537        53.04799         3.62554
H         39.31327        48.27789         2.55318
H         39.32096        55.12200         1.98979
H         41.18266        46.95382         1.79595
H         41.25074        56.24827         1.01936
H         44.66815        44.68943         0.11556
H         42.62584        45.91732         0.73270
H         44.82445        58.27582        -0.34506
H         42.83080        57.12585        -0.00956
H         46.13602        43.95925        -1.16996
H         46.54468        59.26545        -1.33881
H         48.23477        43.01754        -2.14055
H         48.69439        60.23253        -2.00656
H         52.31551        40.19365        -0.51873
H         50.76182        41.51888        -1.92041
H         52.55174        62.20447        -2.50311
H         50.40610        61.07588        -2.36104
H         54.07621        39.52332        -0.97899
H         54.10621        63.29357        -1.81470
H         56.20266        38.53280        -1.49700
H         56.22614        64.47579        -1.71811
H         60.04542        36.86254        -2.59982
H         57.92169        37.85924        -2.00486
H         59.98886        66.62755        -1.54130
H         57.88782        65.43647        -1.49447
H         61.87431        36.33955        -3.23413
H         61.72991        67.51509        -1.82469
H         64.04687        35.36128        -3.65545
H         63.84710        68.68485        -1.80706
H         67.81980        33.24255        -4.04420
H         65.66982        34.30828        -3.71128
H         67.92201        70.48083        -2.42796
H         65.70045        69.45737        -2.27971
H         69.41492        32.22995        -4.00937
H         69.64712        71.22890        -2.79893
H         73.50794        31.73717        -2.77254
H         71.47588        30.89226        -3.96796
H         73.45714        33.95374        -1.66964
H         73.35018        35.59393        -0.54677
H         73.17349        37.72821         0.58067
H         73.20290        39.70401         0.78133
H         73.16427        41.97280         1.60245
H         73.00217        43.76852         2.51507
H         72.98718        46.21066         2.65579
H         72.99926        48.13633         2.58315
H         73.09360        50.55819         2.17363
H         73.03198        52.31664         0.56158
H         73.05554        54.80267         0.55744
H         73.08541        56.82380         2.18098
H         72.95780        59.21765         2.29461
H         72.83520        61.10204         2.41551
H         72.80598        63.51315         2.49940
H         73.08823        65.00770         1.17322
H         73.39399        67.17607         0.10449
H         73.66233        68.95039        -0.75114
H         73.88968        71.03450        -2.04802
H         71.85380        72.28310        -2.80024
