         324
 CSIRO Nanostructure Databank - Neutral Graphene Oxide Data Set
C          1.21795         3.60501        -1.09702
C          0.00214         4.30543        -1.25825
C          1.22056         6.37567        -1.98599
C         -0.02945         5.62261        -1.63569
C          1.23023         7.84263        -1.56985
C          0.13583         8.43252        -0.91642
C          0.76616        10.82890        -0.93389
C         -0.00090         9.75324        -0.43812
C          1.08786        12.07710        -0.36988
C          0.32007        12.58280         0.74423
C          1.19813        14.87277         0.45425
C          0.32757        13.88721         1.12852
C          1.33980        16.24478         1.03220
C          0.16511        16.93524         1.51909
C          1.43649        18.96781         2.07588
C          0.16991        18.25947         1.85604
C          1.50608        20.46427         2.21742
C          0.47870        21.14969         2.88596
C          1.67216        23.24242         2.60134
C          0.61077        22.51073         3.15630
C          1.66311        25.59373         2.20253
C          0.75477        26.58709         2.62650
C          1.15514        27.86576         0.61513
C          0.52497        27.73044         1.86745
C          1.12151        29.11604        -0.14366
C          3.68170         3.57578        -1.03773
C          2.46678         4.26507        -1.24635
C          3.71600         6.35612        -1.60099
C          2.49207         5.66298        -1.56181
C          3.69769         7.78089        -1.80399
C          2.48869         8.50484        -1.79176
C          3.66011        10.69772        -1.53619
C          2.54670         9.94590        -1.85034
C          3.60530        12.16816        -1.32239
C          2.25040        12.85472        -0.85918
C          3.58866        15.05581        -0.58007
C          2.29165        14.30190        -0.42156
C          3.63921        16.43390         0.04294
C          2.51191        16.94978         0.85589
C          3.91371        19.03215         1.34183
C          2.67523        18.22660         1.56670
C          3.86512        20.53266         1.37309
C          2.59762        21.21640         1.71177
C          3.62264        23.36911         0.89748
C          2.62370        22.63520         1.76264
C          3.49546        24.82010         0.47147
C          2.35675        25.69351         0.98051
C          3.58975        27.60511        -0.81372
C          1.94625        26.78019         0.18232
C          3.50165        29.01570        -0.87556
C          2.18126        29.64061        -0.82112
C          6.14046         3.54387        -0.89744
C          4.92859         4.24056        -1.10660
C          6.20097         6.33335        -1.35141
C          4.95898         5.65687        -1.37082
C          6.25827         7.77881        -1.68029
C          4.96506         8.52580        -1.92979
C          6.21405        10.75086        -1.33736
C          4.95448        10.02089        -1.75702
C          6.05512        12.11835        -0.76732
C          4.87405        12.84474        -0.88965
C          6.06504        14.96266        -0.39659
C          4.87883        14.28273        -0.62178
C          6.13039        16.46783        -0.50481
C          4.94778        17.10016         0.18467
C          6.23541        19.16420         0.47122
C          5.03214        18.39285         0.62969
C          6.21543        20.58168         0.56243
C          5.00426        21.29594         0.82643
C          6.09146        23.41553         0.29984
C          4.93576        22.68465         0.69822
C          6.00647        24.82810         0.02022
C          4.75887        25.51715        -0.00891
C          5.95414        27.65773        -0.60788
C          4.76246        26.90483        -0.44032
C          5.95123        29.07219        -0.80362
C          4.69957        29.74731        -0.85651
C          8.59830         3.52654        -0.65870
C          7.38152         4.21704        -0.88040
C          8.65722         6.35251        -0.99322
C          7.40114         5.64308        -1.07101
C          8.63556         7.78224        -1.00579
C          7.44505         8.53987        -1.21249
C          8.50275        10.59485        -0.30953
C          7.39107         9.92863        -1.00828
C          8.55208        12.05855        -0.18399
C          7.24633        12.73236        -0.15581
C          8.61127        14.91100         0.03268
C          7.28744        14.25082        -0.01562
C          8.62542        16.34446         0.03906
C          7.42834        17.07028        -0.02649
C          8.67916        19.17702         0.22451
C          7.44832        18.47110         0.20544
C          8.65979        20.61479         0.16479
C          7.40726        21.30700         0.28408
C          8.52954        23.42576        -0.18763
C          7.33897        22.72403         0.15499
C          8.45023        24.82036        -0.40338
C          7.22845        25.50041        -0.32321
C          8.48173        27.71487        -0.82136
C          7.20872        26.92407        -0.71448
C          8.44545        29.19256        -0.75723
C          7.18372        29.81030        -0.83209
C         11.02383         3.48367        -0.25895
C          9.84233         4.20067        -0.60907
C         11.17805         6.30389        -0.78851
C          9.86355         5.62421        -0.81071
C         11.19864         7.79768        -0.69700
C          9.89706         8.52275        -0.82181
C         11.02305        10.62164         0.06985
C          9.79384         9.86061        -0.18998
C         10.98617        12.01036         0.25494
C          9.73792        12.73309         0.08948
C         11.07876        14.85901         0.37054
C          9.79454        14.18153         0.19949
C         11.09127        16.28695         0.27225
C          9.87865        17.02652         0.17020
C         11.14277        19.13365         0.03860
C          9.89783        18.45116         0.16882
C         11.20120        20.64661         0.05527
C          9.85077        21.32007        -0.07838
C         10.93323        23.38643        -0.80124
C          9.78450        22.72324        -0.33515
C         10.95025        24.83464        -1.04825
C          9.66919        25.57442        -0.80027
C         10.99218        27.72696        -0.63190
C          9.71654        27.00524        -0.31651
C         10.95694        29.19218        -0.67791
C          9.68172        29.86603        -0.70545
C         13.34456         3.45034         0.58704
C         12.26386         4.11466         0.03618
C         13.52823         6.31113         0.29192
C         12.39250         5.55586        -0.29388
C         13.44754         7.75391         0.40236
C         12.28778         8.46290         0.05126
C         13.17134        10.48048         1.16144
C         12.18708         9.85167         0.35160
C         13.08644        11.88016         1.37812
C         12.15426        12.70395         0.74151
C         13.56533        14.88194         0.73684
C         12.28856        14.16136         0.66304
C         13.55771        16.27275         0.41070
C         12.33863        16.97992         0.22231
C         13.52202        19.04204        -0.60512
C         12.31546        18.39951        -0.02988
C         13.43270        20.43046        -1.19116
C         12.20588        21.20142        -0.91945
C         13.42688        23.44859        -1.39599
C         12.10429        22.61482        -1.19493
C         13.44169        24.88122        -0.99115
C         12.23115        25.57706        -0.93692
C         13.43631        27.76082        -0.84849
C         12.16472        27.01564        -0.78214
C         13.45690        29.22194        -0.42182
C         12.15005        29.90414        -0.72968
C         15.86864         3.48785         0.82249
C         14.55607         4.15665         1.13215
C         15.85561         6.32709         1.07256
C         14.61480         5.63214         0.81408
C         15.84904         7.80202         1.01484
C         14.51028         8.43697         1.07559
C         16.27455        10.83987         1.85826
C         14.28915         9.70746         1.57944
C         16.22614        12.27059         1.64187
C         15.05931        13.01509         1.66491
C         16.10764        15.01895         0.80642
C         14.88529        14.31328         1.05957
C         16.12056        16.36091         0.36962
C         14.82454        17.06008         0.38216
C         16.07861        19.09670        -0.62737
C         14.82471        18.48524        -0.15642
C         16.05218        20.47454        -1.18689
C         14.73085        21.16275        -1.47791
C         15.96559        23.39338        -1.07210
C         14.71719        22.67367        -1.47000
C         15.84795        24.73580        -0.45899
C         14.69351        25.50742        -0.59013
C         15.88488        27.84056        -0.27390
C         14.70195        27.00329        -0.58884
C         15.92911        29.23027        -0.74532
C         14.73859        29.90477        -0.86646
C         18.32182         3.51734         0.75648
C         17.05712         4.19066         0.87995
C         18.33134         6.35837         1.16396
C         17.06676         5.64148         1.07367
C         18.37884         7.75242         1.32032
C         17.14951         8.55814         1.16390
C         18.43121        10.63750         0.59876
C         17.26155        10.04095         1.35276
C         18.58309        12.14336         0.74322
C         17.55889        12.93416         1.51913
C         18.66703        15.02749         0.52090
C         17.42833        14.39999         1.11250
C         18.55556        16.37110        -0.07040
C         17.32011        17.05516        -0.00388
C         18.54183        19.14905        -0.69446
C         17.28433        18.44348        -0.45216
C         18.55103        20.56983        -0.81197
C         17.28503        21.28267        -0.94697
C         18.46642        23.46604        -0.73539
C         17.23253        22.64781        -0.86874
C         18.31547        24.73981         0.00515
C         17.03976        25.17044         0.22554
C         18.34864        27.67854        -0.26170
C         17.00099        27.34286         0.31678
C         18.40053        29.18613        -0.42332
C         17.24672        29.86319        -0.75381
C         19.51182         4.19915         0.87608
C         20.81197         6.28437         1.17202
C         19.55466         5.60443         1.08221
C         20.88750         7.63585         1.34137
C         19.67493         8.45515         1.41441
C         20.94304        10.57896         0.43529
C         19.73166         9.95038         1.02057
C         20.90630        11.87083         0.03337
C         19.75562        12.73488         0.32665
C         20.92910        14.83077        -0.38123
C         19.84262        14.18480         0.19532
C         20.92119        16.21775        -0.63646
C         19.76207        16.99716        -0.49675
C         20.98005        19.16545        -0.73833
C         19.76858        18.44314        -0.68197
C         20.98348        20.55341        -0.73217
C         19.77895        21.27860        -0.76745
C         20.91441        23.51522        -0.08203
C         19.79385        22.76953        -0.72223
C         20.78174        24.73004         0.47486
C         19.47218        25.45600         0.70563
C         20.66532        27.71146         0.57843
C         19.53959        26.97802         0.37105
C         20.73812        29.12299         0.26151
C         19.67793        29.82694        -0.23175
O          1.83816        24.54468         3.09365
O         15.51043        20.59097        -2.55484
O          7.90084        27.16003        -2.02526
O         16.86080        26.21983         1.14903
O         14.81735        18.23132         1.29177
O          5.77939        10.70075        -2.74913
O         12.18411         5.79465        -1.73213
O         14.26769        27.42472        -1.97251
O          2.30577        18.20440         2.97761
O         19.31626        23.44674        -1.93861
O         15.54065        23.30982        -2.48690
O         16.57720         8.27943        -0.21115
O          7.01841        13.37717         1.14231
O          5.81076         8.08245        -3.04295
O          2.45291        26.85354        -1.12634
O          8.87798         9.88354         0.95832
O         12.59544        23.11831        -2.49793
O          3.03446        23.74140        -0.41460
O         15.18028        10.24840         2.50503
O         18.30737        15.19264         1.97654
O          3.41322        16.22422        -1.43550
O         10.83474         8.47920        -1.95185
O         10.09631        25.33797        -2.15897
O          4.34024        19.73789         2.54281
O         13.95916        12.43866         2.30036
O         13.33360        19.22101        -2.04857
O          1.11905        14.94896        -1.01118
O          1.35459        10.58289        -2.18748
O          2.69573        12.82627        -2.24321
O         19.77635         9.55800         2.40686
O          6.04504        16.80095        -1.92779
H          5.10622        16.63733        -2.19714
O         19.25050        25.38383         2.14039
H         18.36891        25.78983         2.31243
O         18.24382        10.40371        -0.82476
H         17.61794         9.65065        -0.94301
O         13.52068        29.16716         1.05709
H         13.55109        30.09056         1.38586
O          1.26089         6.38458        -3.46256
H          2.06162         6.88581        -3.73010
O          9.61756        26.94398         1.14158
H          9.85887        27.82433         1.49987
O         18.08223        12.88091         2.88810
H         18.53669        13.74633         3.04229
O         14.40751         4.08898         2.60996
H         15.24120         4.42618         3.00248
O         11.69798        21.00653         1.41936
H         11.16030        20.50761         2.07148
O         18.28258        27.12156        -1.62464
H         19.10602        27.37636        -2.09247
H          1.20327         2.53928        -0.82905
H         -0.94254         3.76832        -1.08777
H         -0.99729         6.10390        -1.83556
H         -0.65562         7.73662        -0.59204
H         -0.73932         9.93138         0.35728
H         -0.37706        11.88722         1.23533
H         -0.29477        14.21921         1.97120
H         -0.79685        16.40720         1.44494
H         -0.78171        18.79285         1.99607
H         -0.37935        20.59492         3.28983
H         -0.11513        23.02373         3.80004
H          0.26304        26.46045         3.59945
H         -0.12150        28.53114         2.25222
H          0.21824        29.73693        -0.03300
H          3.65714         2.50187        -0.80121
H          2.08725        30.65744        -1.23292
H          6.11327         2.45712        -0.72979
H          4.67474        30.84596        -0.89968
H          8.57211         2.43883        -0.49541
H          7.12621        30.90835        -0.88112
H         10.93299         2.40211        -0.07575
H          9.68629        30.96672        -0.71256
H         13.26103         2.37317         0.79975
H         12.12228        31.00343        -0.79326
H         15.88976         2.39779         0.67305
H         14.72387        30.97918        -1.10719
H         18.32384         2.43075         0.58864
H         17.29489        30.95144        -0.91959
H         20.46377         3.65393         0.79673
H         21.73332         5.68605         1.11711
H         21.86184         8.13012         1.45503
H         21.86721         9.99213         0.32876
H         21.80872        12.31695        -0.40783
H         21.83588        14.26624        -0.63746
H         21.84524        16.67604        -1.01333
H         21.94024        18.63294        -0.72873
H         21.94351        21.08721        -0.72391
H         21.91594        23.05733        -0.11159
H         21.67604        25.19478         0.91827
H         21.57192        27.24342         0.98885
H         21.69685        29.63306         0.43112
H         19.77376        30.90170        -0.44621
