         671
 CSIRO Nanostructure Databank - Neutral Graphene Oxide Data Set
C          5.78209        31.83335        -0.77127
C          5.79528        33.18201        -0.74252
C          8.25853        27.53520        -0.31160
C          8.25352        28.90629        -0.61488
C          7.04264        29.63471        -0.63613
C          8.29466        31.75435        -1.33984
C          6.96542        31.01005        -1.10196
C          8.30323        33.25202        -1.29204
C          6.99322        33.99836        -1.03993
C          8.24940        36.05536        -0.38146
C          7.05382        35.39374        -0.56616
C          8.30725        37.45718        -0.13843
C         10.79097        23.21206         0.01043
C         10.74046        24.62733        -0.23744
C          9.54587        25.33381        -0.14127
C         10.68084        27.45441        -0.81070
C          9.54919        26.83000        -0.02450
C         10.74846        28.92580        -0.78278
C          9.52063        29.62692        -0.78664
C         10.73508        31.75446        -0.92341
C          9.53676        31.03849        -0.99497
C         10.73384        33.18160        -0.85139
C          9.56078        33.91095        -0.90230
C         10.78325        36.06996        -0.45665
C          9.53267        35.26596        -0.23757
C         10.78574        37.41253        -0.16937
C          9.52767        38.14291        -0.00392
C         10.78978        40.24979         0.26191
C          9.56968        39.54433         0.18121
C         10.82551        41.65943         0.40273
C         13.23830        18.96676         0.44369
C         13.24194        20.34491         0.26067
C         11.94951        21.08441         0.48589
C         13.23609        23.19230        -0.20062
C         11.98460        22.53114         0.06263
C         13.21987        24.60722        -0.45720
C         11.99586        25.28980        -0.49508
C         13.23083        27.43325        -1.04502
C         11.97149        26.68774        -0.92661
C         13.19284        28.85173        -1.10448
C         11.99852        29.57704        -0.89926
C         13.23847        31.81131        -1.00603
C         12.01869        31.04638        -0.54208
C         13.25236        33.15881        -0.91397
C         12.01546        33.86291        -0.37386
C         13.32043        36.00396        -0.57547
C         12.01349        35.33668        -0.90686
C         13.31600        37.33796         0.13240
C         12.03386        38.13349        -0.04479
C         13.30513        40.18436         0.43661
C         12.02497        39.48743         0.19103
C         13.31206        41.67357         0.59407
C         12.02577        42.40356         0.49111
C         13.28638        44.54173         0.53822
C         12.06089        43.80010         0.50691
C         13.27946        45.94022         0.53629
C         15.71863        14.67606         1.26108
C         15.37244        16.03454         1.24641
C         14.33274        16.77344         0.65371
C         15.63666        18.90392         0.07185
C         14.43189        18.20358         0.42997
C         15.61977        20.26525        -0.27506
C         14.43470        21.02875        -0.09710
C         15.67739        23.14339        -0.59507
C         14.44853        22.46244        -0.30335
C         15.70099        24.57420        -0.71010
C         14.45363        25.31734        -0.71136
C         15.74550        27.38267        -1.34614
C         14.44158        26.70187        -0.98652
C         15.73945        28.88222        -1.14093
C         14.46245        29.58180        -1.35648
C         15.75869        31.77852        -1.12348
C         14.47540        31.07675        -1.36239
C         15.76195        33.18093        -1.07453
C         14.47778        33.93788        -1.36577
C         15.77940        36.05441        -0.75099
C         14.49624        35.36270        -0.84788
C         15.77316        37.45399        -0.55816
C         14.54757        38.14608        -0.20884
C         15.73611        40.32622        -0.37255
C         14.53905        39.49804         0.00420
C         15.76755        41.73540         0.16651
C         14.57903        42.41984         0.39433
C         15.77021        44.56552         0.42552
C         14.55841        43.84354         0.48942
C         15.75057        46.00905         0.43888
C         14.48494        46.70074         0.48831
C         15.67273        48.85731         0.44519
C         14.47149        48.10578         0.50283
C         15.67134        50.26798         0.50304
C         18.45713        10.76176         2.72572
C         18.42152        12.25988         2.55466
C         17.13411        12.85475         2.03060
C         18.31100        14.97590         1.47856
C         17.03079        14.17804         1.65583
C         18.30287        16.26325         0.71414
C         17.21293        17.08160         0.82671
C         18.11890        18.71746        -0.82984
C         16.89913        18.14784        -0.10477
C         18.07232        20.17287        -1.20788
C         16.79935        20.94432        -0.89071
C         18.11518        23.07933        -1.05660
C         16.89230        22.42077        -0.80105
C         18.16103        24.53228        -1.02944
C         16.93257        25.24205        -0.83939
C         18.18942        27.46258        -0.94850
C         16.91356        26.73579        -0.61539
C         18.18890        28.83768        -0.97316
C         16.91986        29.57509        -0.98361
C         18.19494        31.71801        -0.89031
C         16.95439        31.02976        -0.97748
C         18.19923        33.12708        -0.89416
C         16.99146        33.87005        -0.93756
C         18.25718        35.99501        -0.74983
C         17.01145        35.32475        -0.86420
C         18.30152        37.50145        -0.82695
C         17.00635        38.20292        -0.48881
C         18.24193        40.26621         0.27212
C         17.00773        39.54926        -0.21332
C         18.24268        41.75115         0.03564
C         17.01056        42.44562         0.13714
C         18.24846        44.56703         0.19951
C         17.01040        43.86432         0.28255
C         18.26368        46.02375         0.58585
C         16.94724        46.73601         0.38920
C         18.15009        48.88865         0.25384
C         16.93209        48.15544         0.36700
C         18.13117        50.31238         0.31852
C         16.87637        51.00854         0.48625
C         18.09625        53.14114         0.72377
C         16.88869        52.41251         0.66294
C         18.11485        54.53285         0.98861
C         21.01978         6.67651         3.63454
C         20.94098         8.02828         3.15702
C         19.71683         8.66796         3.04273
C         20.86058        10.60374         1.97268
C         19.61373        10.04427         2.62335
C         20.77723        12.07415         1.69494
C         19.61497        12.77051         1.78355
C         20.65130        14.64093         0.39543
C         19.60032        14.20303         1.41500
C         20.79899        16.18725         0.42160
C         19.46622        16.82637         0.07517
C         20.61327        18.72305        -1.06548
C         19.40556        18.07214        -0.51902
C         20.59330        20.18972        -1.43430
C         19.33578        20.94472        -1.25923
C         20.62948        23.02528        -1.54817
C         19.33767        22.32468        -1.26325
C         20.62954        24.56211        -1.52663
C         19.37015        25.23738        -1.19449
C         20.68961        27.40797        -1.12520
C         19.38713        26.72115        -1.45210
C         20.68154        28.81828        -0.99342
C         19.44800        29.55755        -0.99636
C         20.68715        31.64342        -0.69565
C         19.45631        30.96462        -0.86519
C         20.64858        33.10685        -0.32070
C         19.52352        33.83791        -1.04663
C         20.72492        35.96993        -0.45874
C         19.47781        35.30488        -0.68672
C         20.76851        37.40781        -0.36174
C         19.46662        38.08240        -0.03214
C         20.78168        40.26920         0.12514
C         19.49258        39.57504        -0.15905
C         20.72634        41.76038        -0.11815
C         19.46431        42.45214        -0.06880
C         20.67903        44.62057        -0.49000
C         19.43472        43.88855        -0.05356
C         20.68705        46.09493        -0.16327
C         19.43907        46.79306         0.03900
C         20.59780        48.95183        -0.40804
C         19.38456        48.17172         0.02568
C         20.62425        50.33617         0.18958
C         19.33885        51.06257         0.29973
C         20.58370        53.18813         0.60276
C         19.34826        52.44629         0.52142
C         20.57388        54.50680         0.98611
C         19.33006        55.22823         1.16223
C         20.59039        57.29404         1.70681
C         19.37001        56.62488         1.38394
C         20.70413        58.65870         1.63829
C         23.56736         4.01367         4.20732
C         22.34161         4.66858         4.19256
C         23.40314         6.60128         2.96678
C         22.21853         5.98234         3.66659
C         23.42178         8.10484         3.07425
C         22.20325         8.77940         2.98135
C         23.33435        11.00963         2.65644
C         22.13392        10.16304         2.67242
C         23.22123        12.30740         1.93272
C         22.01675        12.75784         1.34378
C         23.20077        14.61514         0.26962
C         21.99325        13.99266         0.66314
C         23.15746        15.83018        -0.58634
C         21.90270        16.64035        -0.54093
C         23.07060        18.70364        -1.61275
C         21.96803        18.15163        -0.66437
C         23.09245        20.19698        -1.33222
C         21.90250        20.90081        -1.34290
C         23.15103        23.04730        -1.33054
C         21.90959        22.33623        -1.33147
C         23.17987        24.52654        -1.69583
C         21.90203        25.27046        -1.35059
C         23.16975        27.38494        -1.07970
C         21.90924        26.66770        -1.15584
C         23.15475        28.80463        -0.95333
C         21.92328        29.52713        -0.88767
C         23.17004        31.67799        -0.70575
C         21.91564        30.94852        -0.73196
C         23.17664        33.11882        -0.58328
C         21.96598        33.83397        -0.48049
C         23.18608        35.98262         0.02926
C         21.94088        35.24013        -0.38272
C         23.20892        37.44459        -0.37174
C         21.95716        38.12360        -0.44230
C         23.23630        40.31950        -0.31779
C         21.93308        39.62593        -0.64796
C         23.21792        41.74033        -0.16391
C         21.95827        42.44904        -0.18217
C         23.17339        44.56950        -0.13276
C         21.97031        43.88415        -0.19484
C         23.14962        46.03688        -0.00610
C         21.88195        46.78372        -0.16689
C         23.08891        48.93191        -0.24660
C         21.91087        48.23587        -0.17743
C         23.17021        50.44292        -0.40870
C         21.90295        51.08936         0.12152
C         23.08570        53.05803         0.96412
C         21.90091        52.59569         0.13432
C         23.02431        54.32023         1.47517
C         21.88233        55.25486         1.11906
C         23.03281        57.09711         2.42011
C         21.72056        56.37909         2.15934
C         23.15054        58.59809         2.31255
C         21.91675        59.46302         2.04400
C         23.46147        61.02287         0.83340
C         22.19623        60.58231         1.07453
C         24.74606         4.63407         3.74898
C         25.88071         6.60886         2.79883
C         24.72965         5.94091         3.24518
C         25.87889         7.99962         2.54337
C         24.75776         8.80054         3.18866
C         25.97905        10.85935         2.24024
C         24.73781        10.29607         2.83743
C         26.18059        12.21757         2.13295
C         24.29570        13.20434         1.85891
C         25.75019        14.69177         0.41861
C         24.41229        14.18596         0.85807
C         25.74112        15.89783        -0.47634
C         24.44391        16.53323        -0.93524
C         25.61450        18.79752        -1.19071
C         24.39785        17.97952        -1.37009
C         25.59192        20.14573        -1.09039
C         24.31039        20.88566        -0.80271
C         25.62678        23.05180        -1.01508
C         24.35387        22.36363        -1.12869
C         25.62215        24.52291        -1.02047
C         24.43467        25.23321        -1.21587
C         25.63592        27.39386        -1.03870
C         24.40692        26.67026        -1.11630
C         25.61836        28.81339        -1.02472
C         24.38754        29.53830        -0.94752
C         25.63539        31.72756        -1.17870
C         24.37051        30.96515        -0.86543
C         25.65949        33.16643        -0.69613
C         24.43123        33.85549        -0.57184
C         25.65437        35.97075        -0.26649
C         24.45298        35.25754        -0.32983
C         25.65832        37.43043         0.12790
C         24.40567        38.16219        -0.29297
C         25.68745        40.29808         0.18438
C         24.41963        39.59181        -0.24399
C         25.71622        41.77603        -0.17956
C         24.45469        42.46837        -0.13345
C         25.68065        44.60540        -0.26996
C         24.44076        43.88629        -0.15293
C         25.69023        46.02046        -0.36371
C         24.43448        46.77759        -0.12769
C         25.62656        48.93095        -0.37012
C         24.33742        48.20071        -0.61910
C         25.74113        50.44140        -0.15629
C         24.40216        51.05679         0.23665
C         25.49524        52.82601         1.57364
C         24.32981        52.26678         0.95497
C         25.38364        53.95868         2.46760
C         24.11089        54.82999         2.31672
C         25.52286        56.89864         2.40260
C         24.26483        56.28260         2.42488
C         25.63013        58.28789         2.19842
C         24.50049        59.12107         1.99313
C         24.61540        60.34367         1.33071
C         26.97442         8.61520         1.94122
C         28.25360        10.63108         1.30385
C         27.07279        10.02428         1.77566
C         28.39441        12.03553         1.11694
C         27.22521        12.86304         1.38561
C         28.35906        14.91398         0.56104
C         27.07955        14.15365         0.88055
C         28.24141        16.00421        -0.47407
C         26.97024        16.79741        -0.42333
C         28.12996        18.76777        -1.62406
C         26.88243        18.02111        -1.32357
C         28.09399        20.26776        -1.45956
C         26.87256        20.85339        -0.73889
C         28.07557        23.05148        -0.36078
C         26.81405        22.35994        -0.83176
C         28.09205        24.52927        -0.64275
C         26.87272        25.22257        -0.82972
C         28.10952        27.33434        -0.86906
C         26.88660        26.65903        -0.93206
C         28.14807        28.79246        -1.21269
C         26.86331        29.55008        -0.96411
C         28.11923        31.63227        -0.55485
C         26.87288        30.91709        -0.89823
C         28.12542        33.12138        -0.40662
C         26.86333        33.87280        -0.54075
C         28.13229        36.02882        -0.31143
C         26.88638        35.28456        -0.36782
C         28.17075        37.41363        -0.32753
C         26.93558        38.17772        -0.22199
C         28.22468        40.33677        -0.04213
C         26.94586        39.54226        -0.16875
C         28.15698        41.68370        -0.77531
C         26.91017        42.46746        -0.38202
C         28.15101        44.65842        -0.42864
C         26.92911        43.91352        -0.40800
C         28.16315        46.08705        -0.42265
C         26.87767        46.74215        -0.55575
C         28.52788        49.13468         0.02646
C         26.71970        48.18286        -0.70732
C         28.22151        50.21816         0.80670
C         26.81311        50.79809         0.93739
C         27.91723        52.65608         2.26875
C         26.87895        52.32497         1.19699
C         27.82306        53.81277         2.98980
C         26.61011        54.69729         3.02042
C         26.77968        56.04478         2.28160
C         29.54245        12.64424         0.59254
C         30.75325        14.67387        -0.05494
C         29.58061        14.03785         0.32292
C         30.77269        16.03067        -0.54132
C         29.46732        16.59998        -0.98344
C         30.68381        18.83212        -1.35952
C         29.44872        18.04529        -1.53486
C         30.65138        20.17584        -1.13442
C         29.39574        20.96623        -1.20728
C         30.58754        23.05089        -0.60672
C         29.37963        22.35588        -0.71436
C         30.58026        24.49143        -0.47014
C         29.33031        25.20486        -0.54211
C         30.55303        27.34834        -0.51251
C         29.34078        26.64260        -0.64337
C         30.56620        28.77008        -0.59487
C         29.39878        29.48376        -0.75291
C         30.62167        31.61222        -0.21801
C         29.43552        30.97748        -0.93666
C         30.63664        33.13189        -0.21368
C         29.38827        33.84171        -0.51552
C         30.63623        35.97194        -0.64556
C         29.41674        35.27623        -0.08429
C         30.66391        37.44219        -0.53985
C         29.44460        38.14236        -0.40799
C         30.68169        40.26078        -0.56479
C         29.46844        39.55755        -0.39321
C         30.67588        41.73842        -0.56443
C         29.45377        42.44029        -0.58641
C         30.69331        44.65394        -0.55056
C         29.43504        43.88645        -0.16040
C         30.68477        46.08346        -0.13357
C         29.39179        46.80596        -0.04675
C         30.62580        48.64421         1.13407
C         29.51951        48.15003         0.33046
C         30.45212        49.84956         1.82768
C         29.23721        50.60926         1.76405
C         29.06150        51.80827         2.45833
C         31.93048        16.73470        -0.72281
C         33.19779        18.85866        -1.21846
C         31.97309        18.03968        -1.49317
C         33.15967        20.19561        -0.91778
C         31.85734        20.85843        -0.52852
C         33.05512        23.06804        -0.59319
C         31.85420        22.36406        -0.66751
C         33.05544        24.49963        -0.44423
C         31.81842        25.17720        -0.38945
C         33.10222        27.36895        -0.35777
C         31.80127        26.64301        -0.05366
C         33.12762        28.72705        -0.49273
C         31.86980        29.49000        -0.84209
C         33.13472        31.63558        -0.62304
C         31.93892        30.84641        -0.14157
C         33.14769        33.03679        -0.44848
C         31.93137        33.78985        -0.30270
C         33.25523        35.94047        -0.76656
C         31.92371        35.20464        -0.71493
C         33.16024        37.40921        -0.41705
C         31.90836        38.12099        -0.52614
C         33.19922        40.21826        -0.67820
C         31.90086        39.53999        -0.58533
C         33.19537        41.75707        -0.59240
C         31.90786        42.42503        -0.45470
C         33.15048        44.51464         0.19356
C         32.02947        43.91287        -0.63941
C         33.06313        45.84104         0.63629
C         31.90173        46.64576         0.50639
C         31.81702        47.86539         1.18046
C         34.35415        20.96592        -0.85360
C         35.53595        23.08170        -0.64007
C         34.33322        22.35959        -0.67318
C         35.58028        24.49162        -0.45823
C         34.31784        25.22047        -0.33017
C         35.60923        27.35022        -0.10787
C         34.33522        26.61256        -0.25391
C         35.67729        28.77608        -0.42790
C         34.39312        29.53906        -0.24540
C         35.66925        31.63671        -0.96280
C         34.36371        30.84969        -1.02830
C         35.62244        33.15041        -0.81976
C         34.36106        33.77647        -0.45040
C         35.59133        35.88285         0.30037
C         34.25855        35.15586         0.13361
C         35.59383        37.40088         0.25067
C         34.34491        38.10938        -0.12249
C         35.63457        40.23415        -0.06468
C         34.40444        39.51361        -0.25025
C         35.59415        41.65941         0.05580
C         34.41573        42.40556        -0.06049
C         34.32230        43.75683         0.36315
C         36.81370        25.14593        -0.49906
C         38.15993        27.34376        -0.45516
C         36.95074        26.56290        -0.19307
C         38.14784        28.73442        -0.41380
C         36.88485        29.46380        -0.47530
C         38.11809        31.60553        -0.47206
C         36.92734        30.91171        -0.64564
C         38.19566        33.09055        -0.50567
C         36.89682        33.89423        -0.59006
C         38.07891        35.92382         0.18256
C         36.86587        35.22721         0.00451
C         38.06766        37.35231         0.27600
C         36.88918        38.10457         0.13754
C         36.85102        39.51796         0.06528
C         39.35998        29.49817        -0.29361
C         40.53523        31.63435         0.14305
C         39.34526        30.88255        -0.20901
C         40.53053        32.98614         0.33656
C         39.35296        33.78704         0.09192
C         39.30692        35.15841         0.26644
O         17.11225        20.47439        -2.25560
O         13.39028        40.79021         1.78514
O         25.88709        14.59972        -1.09099
O         35.69471        32.49559        -2.15055
O         16.32887        16.86733         1.88052
O         20.58506        23.78569        -2.80515
O         37.79121        33.75569        -1.74186
O         14.42320        30.34962        -2.64719
O         33.37214        41.05157        -1.86541
O         19.28365        15.02954         2.58361
O         23.01457        57.95828         3.62915
O         21.47420        50.48803         1.37931
O         17.18778        17.83578        -1.51479
O         30.40663        32.28909         1.00608
O         29.52082        16.92098        -2.44742
O         20.46951        19.13957        -2.44703
O         25.32579        13.09758         2.79597
O         30.67052        45.65299        -1.60136
O         27.34188        18.12824        -2.69319
O         36.33288        26.95090         1.09698
O         11.02355        26.86677        -2.08207
O         27.82969        48.90512        -1.16092
O         22.17353        15.82003        -1.69698
O          7.54999        31.20388        -2.44913
O         24.32554        53.94497         3.47578
O         23.89001        46.52535         1.19519
O         21.19726        16.60659         1.69974
O         31.09498        35.44519        -1.93506
O         11.99171        33.79077         1.02683
O         28.02003        32.16473         0.80139
O          7.56096        33.85729        -2.39328
O         28.68475        20.98803        -2.55376
O         24.11674        11.05653         3.90436
O         24.58045        16.89115        -2.34033
O         35.55569        36.67079         1.54148
O         32.50761        44.02885        -2.01506
H         32.10229        44.84985        -2.38514
O         18.57160        37.81776        -2.22637
H         17.84004        37.45365        -2.76719
O         29.61754        35.27051         1.37474
H         29.01679        34.59445         1.75774
O         34.28639        30.45152        -2.44085
H         34.59191        31.23641        -2.95881
O         15.97097        27.16744        -2.76948
H         15.29854        27.68173        -3.26608
O         23.30157        50.73289        -1.85474
H         24.26025        50.91775        -2.02533
O         33.77232        35.86773        -2.11381
H         33.00632        35.97846        -2.72155
O         29.60834        31.23895        -2.36349
H         30.43735        30.75209        -2.63492
O         24.24193        48.07218        -2.08982
H         23.82304        48.89937        -2.42781
O         23.15052        36.01015         1.50333
H         23.98374        36.46638         1.79347
O         22.20752        55.86558        -0.15422
H         22.21006        55.13886        -0.82286
O         20.59871        44.60296        -1.97115
H         20.54693        43.66291        -2.25003
O         32.10133        30.51658         1.26316
H         31.90436        31.32895         1.78231
O         25.60251        37.43993         1.60490
H         25.54448        38.39598         1.87354
O         16.66143        26.94234         0.80743
H         17.41141        26.56263         1.31050
O         18.47166        46.00003         2.04704
H         18.47531        46.92976         2.36042
O         31.80431        29.69068        -2.28899
H         32.71840        29.90985        -2.62072
O         29.54428        43.82289         1.31513
H         28.92208        43.12921         1.62824
O         27.08699        20.51913         0.68170
H         26.19181        20.54775         1.10382
O         10.85723        20.39513        -0.13860
H         11.01844        20.37953        -1.10429
O         32.08098        17.65348        -2.89945
H         31.22722        17.20920        -3.13398
O         28.01812        41.36802        -2.18924
H         28.13046        42.19509        -2.70265
O         20.13096        14.23542        -0.88183
H         20.77969        14.51862        -1.57134
O         21.32315        55.74325         3.39168
H         21.51767        56.36941         4.12211
O         18.20100        40.15462         1.75845
H         18.25505        39.18093         1.94940
O         31.70464        20.62131         0.91929
H         32.45722        21.06025         1.37001
O         25.64037        40.27551         1.66617
H         26.50213        40.65946         1.96478
O         28.25952        28.82019        -2.69317
H         28.55919        29.73229        -2.93551
O         12.01605        31.10478         0.91950
H         12.02056        32.08715         1.16613
O         26.29245        50.17379         2.13495
H         26.87978        50.40371         2.88576
O         21.56126        60.11103         3.30602
H         21.80608        59.47628         4.01835
O         26.89300        17.42913         0.91177
H         27.48350        16.92747         1.53158
O         22.74196        18.50690        -2.98433
H         23.07638        17.61686        -3.24505
O         31.73290        26.69292         1.42296
H         32.44424        26.11327         1.77029
O         11.89585        35.24355        -2.35380
H         12.73514        34.85810        -2.71553
O         24.20045        20.80833         0.69002
H         23.56780        20.06865         0.89162
O         26.10866        51.04335        -1.44476
H         26.86862        50.50648        -1.78334
O         34.46552        29.90568         1.16103
H         34.20112        29.13011         1.69910
O         28.65413        15.60656         1.86493
H         28.73411        14.91137         2.55443
O         13.39460        37.03249         1.55852
H         13.37513        37.88220         2.04867
O          9.58370        34.92704         1.19537
H         10.49955        34.51894         1.35907
O         25.62355        31.87355        -2.65356
H         25.55232        30.97338        -3.03890
O         19.26071        26.82467        -2.92895
H         18.31926        26.64880        -3.15578
O         33.63424        35.03715         1.43169
H         34.05000        35.72226         2.00998
O         20.32525        33.16075         1.09872
H         21.11843        32.89224         1.60761
O         23.18439         6.34453         1.52353
H         22.23665         6.51703         1.33587
O         20.49094        49.14544        -1.85316
H         20.43036        48.25977        -2.27019
O         15.59105        40.54892        -1.83786
H         15.69425        39.67708        -2.27679
O         14.37754        34.02975        -2.83504
H         14.36860        33.11296        -3.18906
O         19.85735        33.78452        -2.46781
H         19.14157        34.23050        -2.96690
O         25.05424         8.73676         4.62613
H         24.61054         9.51740         5.03396
O         19.21803        37.73209         1.38092
H         20.05231        37.91930         1.86793
O         28.34884        40.68639         1.38858
H         28.66019        39.88426         1.86173
O         22.08752        53.09954        -1.22538
H         22.52361        52.38183        -1.75307
O         21.04319        40.07060         1.55781
H         20.23996        40.39981         2.02974
O          9.89131        27.12208         1.39064
H          9.13409        26.83780         1.94504
O         22.31166        18.65338         0.65109
H         21.88711        18.01872         1.32804
O         18.57738        12.78735         3.91853
H         18.81156        13.74696         3.81854
O         27.00978        55.77807         0.89884
H         27.14636        56.62648         0.43119
O         20.94478         9.97293         0.64259
H         20.76020         9.01624         0.75739
O         21.65603        39.87289        -2.05635
H         22.31317        39.37803        -2.58858
O         23.24921        24.56950        -3.16206
H         22.37885        24.23525        -3.49155
O         28.04203        22.96836         1.11694
H         27.85847        22.01677         1.33187
O         27.32126        52.99510        -0.00369
H         26.79629        52.63751        -0.75943
O         26.39132        55.04112         4.40299
H         25.49112        54.71226         4.64483
H          4.86846        31.29630        -0.47223
H          4.89132        33.72261        -0.42173
H          7.30391        27.00700        -0.16888
H          6.12488        29.15412        -0.26333
H          6.10345        35.94048        -0.45660
H          7.36807        38.03209        -0.13432
H          9.85548        22.67088         0.21454
H          8.61562        24.78531         0.07536
H          8.62321        40.09946         0.26881
H          9.86997        42.20641         0.40787
H         12.28525        18.47049         0.67789
H         11.73380        21.06180         1.59245
H         11.11450        44.36099         0.46484
H         12.31763        46.47445         0.56026
H         14.96450        13.92643         0.97490
H         13.38764        16.27991         0.37998
H         13.51015        48.63679         0.56927
H         14.71380        50.80162         0.59756
H         17.56787        10.27964         3.16376
H         16.21105        12.26068         2.12689
H         15.93514        52.94117         0.81192
H         17.16211        55.07098         1.10545
H         20.09791         6.19528         3.99570
H         18.80110         8.13087         3.33448
H         18.44538        57.21366         1.28019
H         19.82123        59.24217         1.32971
H         23.62915         2.99953         4.62669
H         21.45344         4.18303         4.62284
H         23.61714        61.90486         0.19485
H         21.33311        61.11924         0.65504
H         25.70702         4.10900         3.85152
H         26.81793         6.04496         2.66731
H         26.63002        58.71696         2.02640
H         25.61375        60.72629         1.07487
H         27.80724         7.98581         1.59246
H         29.10618         9.98472         1.04777
H         28.61648        54.05713         3.71371
H         27.65581        56.60082         2.71756
H         30.41688        12.02937         0.33277
H         31.70398        14.11916        -0.02590
H         31.27137        50.22486         2.45879
H         29.83931        52.14412         3.16123
H         32.88909        16.27583        -0.43457
H         34.16810        18.38559        -1.43723
H         33.92399        46.27195         1.17158
H         32.67681        48.22170         1.76643
H         35.31956        20.46304        -1.01600
H         36.48510        22.53452        -0.74112
H         36.51836        42.17669         0.35542
H         35.19399        44.22229         0.84932
H         37.71091        24.57489        -0.78185
H         39.11345        26.81043        -0.58881
H         39.03198        37.87936         0.33491
H         37.79505        40.08092         0.11818
H         40.30832        28.95753        -0.15422
H         41.46058        31.06587         0.31887
H         41.44809        33.49531         0.66702
H         40.21839        35.68790         0.58415
