         467
 CSIRO Nanostructure Databank - Neutral Graphene Oxide Data Set
C         37.03691        51.15184        -1.15871
C         36.26125        51.58154        -0.08045
C         38.05282        53.05733         0.61562
C         36.77944        52.52249         0.81396
C         40.31488        49.26776        -2.49085
C         40.26793        50.63426        -2.12261
C         38.32100        51.68063        -1.33152
C         40.17224        53.30297        -0.65722
C         38.85252        52.65930        -0.47536
C         40.22217        54.66222        -0.28658
C         42.69522        49.13435        -2.00543
C         41.46751        48.51585        -2.34069
C         42.67189        50.59696        -1.81155
C         41.38459        51.30417        -1.59837
C         42.62455        53.27200        -0.64198
C         41.37933        52.63489        -1.02052
C         42.63638        54.62025        -0.15913
C         41.41958        55.33181        -0.10446
C         45.01436        46.19391        -1.81039
C         43.92020        46.97401        -2.01732
C         45.14071        49.07546        -1.56229
C         43.92756        48.42036        -1.94686
C         45.12434        50.39198        -1.05069
C         43.96501        51.25450        -1.29145
C         44.98896        53.07006         0.05691
C         43.85940        52.55726        -0.61776
C         44.99927        54.41080         0.57289
C         43.85554        55.21777         0.33961
C         45.04400        57.14749         1.21963
C         43.91770        56.60334         0.65213
C         47.39830        44.62398        -0.67716
C         47.49909        45.89249        -1.29609
C         46.36938        46.74370        -1.76654
C         47.59073        48.98955        -0.99071
C         46.42570        48.34801        -1.63720
C         47.42990        50.18483        -0.20660
C         46.22151        50.93546        -0.31002
C         47.21971        52.72741         1.05968
C         46.15754        52.25695         0.23154
C         47.29085        54.09695         1.53384
C         46.15334        54.94258         1.25141
C         47.26951        56.89287         2.29304
C         46.15435        56.33617         1.58252
C         47.41426        58.30941         2.58181
C         49.84319        44.44484        -0.37300
C         48.53815        43.89424        -0.31592
C         49.92267        45.78551        -0.81487
C         48.81374        46.36649        -1.42873
C         49.98614        48.80490        -0.25797
C         48.87431        48.49798        -1.12896
C         49.80397        49.94470         0.69165
C         48.48618        50.64279         0.61384
C         49.99562        52.71662         2.15641
C         48.20512        51.77173         1.40143
C         49.82184        54.11475         2.22091
C         48.44460        54.66704         2.17924
C         50.09252        57.08551         2.80909
C         48.26985        55.98689         2.66812
C         49.91623        58.45638         2.52967
C         48.59051        59.01625         2.67137
C         52.33832        41.60527         0.16378
C         51.13403        42.30663         0.12380
C         52.33655        44.34295        -0.33341
C         51.09219        43.69233        -0.14325
C         52.39940        45.80543        -0.57636
C         51.16783        46.60890        -0.78137
C         52.33192        48.48782         0.57038
C         51.12591        48.02420        -0.25298
C         52.37449        50.00714         0.75554
C         51.09125        50.61848         1.22705
C         52.28899        52.82291         1.47891
C         51.12398        52.05374         1.62901
C         52.26387        54.17653         1.88206
C         51.05174        54.86770         2.17581
C         52.34748        57.03578         2.00897
C         51.15374        56.30965         2.31195
C         52.30802        58.46060         2.01017
C         51.08137        59.16839         2.08293
C         52.15877        61.18545         1.15757
C         51.04622        60.52973         1.59535
C         54.93183        40.10261         0.14258
C         54.86342        41.49261        -0.09200
C         53.58393        42.23267        -0.07280
C         54.80835        44.36756        -0.59493
C         53.55281        43.63048        -0.30389
C         54.83726        45.82126        -0.37454
C         53.64579        46.52358        -0.23303
C         54.76903        48.72147        -0.32667
C         53.59998        47.90367         0.00653
C         54.74577        50.18927        -0.03196
C         53.50145        50.75781         0.59557
C         54.81292        52.79029         1.29491
C         53.49687        52.27334         0.75385
C         54.88669        54.11145         1.88852
C         53.54478        54.89005         2.08926
C         54.82598        57.03680         1.89130
C         53.59055        56.33721         1.96303
C         54.83299        58.45461         1.78505
C         53.56847        59.19976         1.91532
C         54.73875        61.19787         0.80297
C         53.50742        60.67066         1.43118
C         54.75504        62.24673        -0.07107
C         57.35518        40.08212        -0.17633
C         56.14447        39.41717         0.10417
C         57.31727        41.47353        -0.39610
C         56.09039        42.15939        -0.35493
C         57.39432        44.33446        -0.47380
C         56.10242        43.61302        -0.62257
C         57.39075        45.79773        -0.24914
C         56.10064        46.54447        -0.20956
C         57.36987        48.76837        -0.50304
C         56.08136        48.01046        -0.53149
C         57.38153        50.21256        -0.12583
C         56.06867        50.92753         0.03829
C         57.34407        52.82729         1.20254
C         56.04810        52.28168         0.68962
C         57.35017        54.27955         1.51970
C         56.12042        54.91892         1.73231
C         57.30055        57.06501         1.90506
C         56.07882        56.33144         1.86438
C         57.27332        58.48959         1.75874
C         56.03629        59.15528         1.62041
C         57.19806        60.87133         0.30965
C         56.06180        60.64826         1.32234
C         57.20697        62.25592        -0.29528
C         55.98453        62.83464        -0.53785
C         59.91954        37.28705        -0.39822
C         58.72812        37.95748        -0.33691
C         59.83382        40.11454        -0.13183
C         58.65875        39.39485        -0.21802
C         59.80406        41.61758         0.02548
C         58.61160        42.16367        -0.81507
C         59.81391        44.37970        -1.07215
C         58.55668        43.66618        -0.65903
C         59.77766        45.85962        -0.76901
C         58.63684        46.54461        -0.50082
C         59.83251        48.77354        -0.79137
C         58.65989        48.02471        -0.16118
C         59.86500        50.28613        -0.52819
C         58.58420        50.85682         0.04921
C         59.83900        53.00892         0.73985
C         58.61827        52.14637         0.79218
C         59.86655        54.20511         1.69587
C         58.56562        54.98229         1.68262
C         59.77163        57.08465         2.32788
C         58.53984        56.35964         1.94993
C         59.74691        58.66884         2.18105
C         58.50940        59.23454         1.62168
C         59.72585        61.16237         0.66948
C         58.51574        60.43236         0.91354
C         59.70841        62.33347        -0.20484
C         58.47080        62.82904        -0.72234
C         59.69369        64.50642        -2.02027
C         58.50642        63.91008        -1.63672
C         62.51194        35.88779        -0.59893
C         62.40739        37.30253        -0.42039
C         61.18145        37.96168        -0.28783
C         62.38631        40.22763         0.06854
C         61.12069        39.41579         0.00382
C         62.36982        41.69346        -0.17574
C         61.11832        42.33862        -0.29491
C         62.32041        44.43666        -0.75137
C         61.09813        43.70440        -0.61471
C         62.19830        45.79346        -1.20014
C         61.01267        46.56471        -1.06307
C         62.84220        49.13673        -0.68393
C         60.99530        47.95744        -1.17579
C         62.44777        50.28127        -0.03805
C         61.22696        51.09840        -0.52499
C         62.37885        53.11065         0.70539
C         61.12752        52.45519         0.22033
C         62.33380        54.47202         1.22468
C         61.09261        55.07031         1.56263
C         62.23705        56.88573         2.69820
C         61.05251        56.35818         2.20068
C         62.19141        59.11354         2.59782
C         60.98397        59.46794         1.99185
C         62.16001        61.47308         1.09897
C         60.92619        60.68203         1.22801
C         62.16281        62.62811         0.12233
C         60.91583        62.97416        -0.58144
C         62.16507        64.78893        -1.76111
C         60.93625        64.07703        -1.48393
C         62.18807        66.06258        -2.34869
C         64.96983        35.97821        -0.57827
C         63.73175        35.26866        -0.71349
C         64.97389        37.35167        -0.39998
C         63.67876        38.06743        -0.47511
C         64.91913        40.24698         0.21372
C         63.67204        39.54188        -0.28063
C         64.89570        41.72060        -0.14571
C         63.60516        42.40784        -0.27434
C         64.85516        44.52755        -0.01160
C         63.58071        43.81413        -0.47796
C         64.98060        46.03870        -0.05461
C         64.04546        46.93318        -0.62926
C         64.76107        48.71337         0.86720
C         63.90457        48.26049        -0.23946
C         64.73913        50.17646         1.15419
C         63.50818        50.93783         0.78649
C         64.87110        53.13709         0.74469
C         63.55246        52.41070         0.76986
C         64.81874        54.46885         1.47405
C         63.54701        55.10798         1.61604
C         64.71724        56.96088         2.71885
C         63.50425        56.31314         2.38564
C         64.70358        59.13887         2.60261
C         63.45676        59.71676         2.25044
C         64.68561        61.49357         1.11109
C         63.45963        60.86612         1.43013
C         64.72170        62.67613         0.25334
C         63.47437        62.99833        -0.47749
C         64.70582        64.97358        -1.51483
C         63.46681        64.18692        -1.42226
C         64.64467        66.23625        -2.14806
C         63.38123        66.74190        -2.57207
C         67.46488        33.14537        -0.23120
C         66.30594        33.83869        -0.23823
C         67.48361        36.02279        -0.46622
C         66.25354        35.22682        -0.82798
C         67.47371        37.40353        -0.37948
C         66.20274        38.12434        -0.32190
C         67.40606        40.27509        -0.24646
C         66.18571        39.51309        -0.17919
C         67.35912        41.68103        -0.29896
C         66.10698        42.38238        -0.29372
C         67.36634        44.53925         0.10129
C         66.13931        43.88313        -0.53994
C         67.33015        45.86343         0.63696
C         66.10441        46.58733         0.59025
C         67.17827        48.57640         1.91882
C         65.98621        47.91015         1.21946
C         67.17442        50.10784         1.69327
C         66.07098        50.82251         1.30929
C         67.32773        53.00417         1.59072
C         66.12274        52.29560         1.07977
C         67.21212        54.36849         2.20071
C         65.98138        55.13558         1.83207
C         67.15230        57.33527         2.12787
C         65.96555        56.51379         2.26196
C         67.16760        58.75947         2.04889
C         65.93740        59.57744         2.07314
C         67.14481        61.65904         1.40948
C         65.90307        60.87472         1.48222
C         67.10156        63.08460         0.86033
C         65.88889        63.35774        -0.01630
C         67.10863        65.25186        -1.09454
C         65.91562        64.51693        -0.90052
C         67.10511        66.43892        -1.88828
C         65.86611        66.97643        -2.35698
C         67.04896        68.88153        -3.29618
C         65.86608        68.21915        -3.03243
C         69.98130        31.65304        -0.74482
C         69.90032        33.09234        -0.82488
C         68.72115        33.78028        -0.59088
C         70.02321        36.01581        -0.46906
C         68.73595        35.25477        -0.38636
C         69.99126        37.49793        -0.46045
C         68.71760        38.16700        -0.30693
C         69.89638        40.33586        -0.07377
C         68.66055        39.56323        -0.26104
C         69.89065        41.77860        -0.25427
C         68.60900        42.48521        -0.59871
C         69.79608        44.54866         0.33008
C         68.57793        43.87214         0.00455
C         69.75910        45.87335         0.85149
C         68.53201        46.54205         1.04319
C         69.70871        48.61221         1.69813
C         68.50878        47.92096         1.52136
C         69.72988        50.02492         2.16783
C         68.41589        50.80242         2.13067
C         69.69372        52.97146         2.21034
C         68.51132        52.26165         2.06236
C         69.68731        54.44488         2.10376
C         68.48873        55.13473         2.05531
C         69.70962        57.32175         1.67391
C         68.38408        56.57961         1.78164
C         69.65059        58.78743         1.75463
C         68.40988        59.44125         1.76476
C         69.67333        61.55919         1.09605
C         68.43732        60.91903         1.59719
C         69.61603        62.84848         0.45018
C         68.40253        63.52728         0.23015
C         69.63071        65.31822        -1.07612
C         68.38002        64.93113        -0.32495
C         69.61144        66.47689        -1.88706
C         68.33392        67.11070        -2.21670
C         69.54022        68.98618        -3.39702
C         68.29319        68.32098        -2.93072
C         69.58659        70.44304        -3.57796
C         72.38410        31.69423        -1.18411
C         71.16207        30.98737        -0.89655
C         72.38474        33.03847        -1.35356
C         71.13768        33.81941        -1.24122
C         72.46123        36.10335        -1.05777
C         71.20467        35.32758        -1.08418
C         72.43456        37.43514        -0.80205
C         71.21010        38.16512        -0.53284
C         72.41746        40.45122        -0.52460
C         71.26870        39.60047        -0.20427
C         72.34382        41.80075        -0.38561
C         71.08746        42.49952        -0.19499
C         72.22493        44.74916        -0.02549
C         71.04940        43.92273         0.02174
C         72.22039        46.01067         0.47703
C         71.05969        46.48953         1.31281
C         72.15002        48.73272         1.59194
C         70.98617        47.99029         1.47693
C         72.15234        50.12777         1.83181
C         70.98098        50.82026         2.10434
C         72.13306        53.02266         2.34006
C         70.95344        52.25991         2.27673
C         72.12912        54.42063         2.27882
C         70.94906        55.16588         2.11380
C         72.09125        57.39560         2.20221
C         70.95487        56.60460         2.00296
C         72.07450        58.78549         1.98757
C         70.89492        59.49627         1.72071
C         72.09839        61.54136         0.91825
C         70.89400        60.88985         1.28455
C         72.06679        62.77680         0.28947
C         70.85571        63.42366        -0.01646
C         72.03318        65.13490        -1.39839
C         70.84190        64.63882        -0.81876
C         72.02936        66.30851        -2.13445
C         70.83273        66.99921        -2.38638
C         72.07482        69.11498        -3.12433
C         70.86814        68.27498        -3.14911
C         72.02559        70.42397        -3.48672
C         70.77203        71.09441        -3.71202
O         62.05747        48.61795        -1.74982
O         55.43666        43.98234        -1.88660
O         52.01687        46.28150        -1.93625
O         61.77713        39.79416         1.32019
O         68.95548        50.25669         3.38098
O         50.29672        49.70841         2.05523
O         39.05575        51.26245        -2.44526
O         43.58136        51.32064        -2.70796
O         54.47142        49.70649        -1.38955
O         56.79705        46.21399         1.06883
O         60.29017        53.37413        -0.58507
O         49.09223        47.55036        -2.13195
O         54.29053        54.31232         3.21298
O         53.69668        60.33145         2.84736
O         63.29829        46.43557        -1.71890
O         62.07353        62.87927         1.55856
O         62.20836        58.04281         3.50234
O         64.77252        47.89377         2.07976
O         49.17608        56.43316         3.64164
O         70.90605        34.72930        -2.39398
O         56.02859        52.14771        -0.80208
O         68.98565        56.87388         0.46835
O         64.69983        58.09948         3.53968
O         59.59858        57.98254         3.44890
O         70.20807        68.21661        -4.45807
O         58.84515        41.93108        -2.18658
O         63.56861        62.77684        -1.90785
O         67.19756        52.74977         0.15534
O         46.66074        47.63894        -2.87287
O         69.56951        35.51745         0.83337
O         70.67293        39.90204         1.09242
O         67.82005        61.65348         2.73316
O         58.06544        51.98296         2.14790
O         63.72899        50.47928         2.18927
O         60.26235        53.84231         2.99855
O         56.76718        48.37307        -1.76724
O         63.71415        39.05205        -1.63841
O         48.91439        51.94406         2.59047
O         59.53234        49.74539        -1.84313
O         64.97554        53.51426        -0.66538
H         65.93499        53.64249        -0.85854
O         64.83585        40.17023         1.67212
H         65.54897        40.72878         2.04719
O         66.22343        44.11660        -1.95834
H         67.00631        43.60918        -2.29296
O         67.02591        48.34511         3.33154
H         66.06297        48.39838         3.53028
O         58.86230        48.11061         1.27134
H         58.21413        47.49460         1.69240
O         64.87281        44.22047         1.42113
H         64.24732        44.81970         1.88074
O         59.52803        41.90332         1.42436
H         60.17213        41.38439         1.95656
O         56.91553        59.96013        -0.79837
H         57.57403        60.12783        -1.50458
O         56.36297        61.35906         2.54029
H         55.61522        61.19189         3.15882
O         59.85670        44.28554        -2.52362
H         59.50855        43.36062        -2.73872
O         68.35651        65.84196         0.83698
H         67.71076        65.44784         1.48056
O         71.30670        45.97162         2.67084
H         71.28144        44.99229         2.61725
O         66.31738        35.03767        -2.28764
H         66.16753        35.91096        -2.70866
O         66.88847        63.95088         2.03489
H         67.35641        63.50388         2.78208
O         68.61029        42.66863        -2.07715
H         69.41946        43.17632        -2.30374
O         53.38431        52.81321        -0.60561
H         54.20801        52.54648        -1.08983
O         67.03643        54.07041         3.63126
H         66.92546        54.91935         4.10952
O         52.20989        47.88373         1.89594
H         51.43928        48.32382         2.33649
O         61.49549        51.43958        -1.89069
H         61.06866        50.76444        -2.46652
H         36.65094        50.41425        -1.87405
H         35.25072        51.17675         0.06685
H         38.44229        53.79364         1.33284
H         36.18009        52.85105         1.67370
H         39.39694        48.79899        -2.86820
H         39.28028        55.20155        -0.11536
H         41.42677        47.44506        -2.57717
H         41.39504        56.38578         0.19929
H         44.88725        45.10625        -1.70705
H         42.95126        46.46622        -2.11331
H         45.06838        58.22425         1.43150
H         43.07262        57.26319         0.41759
H         46.41093        44.16240        -0.53118
H         46.49095        58.90887         2.59632
H         48.40195        42.86826         0.05428
H         48.50993        60.11195         2.74482
H         52.30010        40.52466         0.35954
H         50.19638        41.75485         0.28228
H         52.05432        62.14776         0.63531
H         50.06176        61.00032         1.45804
H         54.01637        39.53394         0.35674
H         53.81246        62.72157        -0.38295
H         56.14235        38.33537         0.29942
H         55.91228        63.79792        -1.06289
H         59.90401        36.19932        -0.54992
H         57.79399        37.38734        -0.43367
H         59.66453        65.33132        -2.74474
H         57.56757        64.28291        -2.06844
H         61.60154        35.27633        -0.65497
H         61.24737        66.54922        -2.64065
H         63.76387        34.18617        -0.89697
H         63.32512        67.72585        -3.05448
H         67.46526        32.09308         0.08920
H         65.37360        33.35330         0.08311
H         67.01967        69.82808        -3.85235
H         64.92536        68.66455        -3.37995
H         69.06882        31.08246        -0.52380
H         68.64702        71.01419        -3.57801
H         73.31679        31.12156        -1.28445
H         71.19387        29.89334        -0.80159
H         73.31174        33.56537        -1.61905
H         73.41269        35.60640        -1.29270
H         73.38190        37.99227        -0.79365
H         73.36078        39.98896        -0.84807
H         73.25176        42.39903        -0.54492
H         73.13154        44.36644        -0.51646
H         73.13204        46.61978         0.40654
H         73.12502        48.24125         1.47483
H         73.11769        50.65148         1.80826
H         73.10569        52.51731         2.41660
H         73.09739        54.93899         2.31782
H         73.04832        56.92616         2.46888
H         73.02998        59.32369         2.05123
H         73.06698        61.05565         1.09364
H         73.02339        63.23205         0.00286
H         72.98600        64.60866        -1.26068
H         72.97574        66.68021        -2.54956
H         73.02654        68.67987        -2.78735
H         72.94625        71.02456        -3.49492
H         70.78457        72.18066        -3.87995
