         294
 CSIRO Nanostructure Databank - Neutral Graphene Oxide Data Set
C          1.47285         2.95339         0.33305
C          1.43309         3.86731        -0.68071
C          2.51961         2.08394         0.80348
C          2.50242         4.26612        -1.69648
C          1.59153         6.53607        -2.18966
C          1.59007         7.96793        -2.04554
C          2.64637         5.77962        -1.74881
C          2.65348         8.64452        -1.52965
C          1.68983        10.98747        -1.99070
C          1.62337        12.30657        -1.74925
C          2.53360        10.08389        -1.17002
C          2.33999        12.93595        -0.56463
C          1.29256        15.23806        -0.91559
C          1.28400        16.52332        -0.50896
C          2.50882        14.42888        -0.74598
C          2.57668        17.14716         0.00034
C          2.58500        18.65367         0.04969
C          3.69398         1.78528         0.12999
C          3.76792         3.57585        -1.30210
C          4.84578         1.16244         0.67843
C          4.92958         4.24916        -0.90061
C          3.84316         6.43106        -1.24972
C          3.97481         7.94771        -1.29188
C          4.93708         5.70939        -0.84196
C          4.75789         8.45865        -0.03810
C          3.60703        10.73098        -0.32856
C          3.66448        12.21696        -0.33017
C          4.85271         9.98028        -0.02321
C          4.80836        12.86542        -0.02691
C          3.70458        15.05414        -0.58216
C          3.70575        16.55918        -0.87926
C          4.83959        14.36429         0.14821
C          5.03372        17.26958        -0.67693
C          3.70671        19.37121        -0.06638
C          5.00276        18.80439        -0.59300
C          6.13678         1.43776         0.18002
C          6.12148         3.52012        -0.69789
C          7.38905         1.21093         0.72388
C          7.43383         4.14664        -0.47060
C          6.06019         6.29346        -0.00775
C          6.12904         7.81592         0.00153
C          7.40730         5.65178        -0.37966
C          7.24418         8.45776         0.40461
C          5.99028        10.63805         0.29382
C          5.99512        12.13320         0.57475
C          7.22707         9.92956         0.79379
C          7.35436        12.83173         0.38465
C          6.21457        14.93366        -0.29598
C          6.23749        16.48132        -0.28650
C          7.36217        14.24571         0.40296
C          7.26532        17.16982         0.59621
C          6.25225        19.39288         0.01538
C          7.37407        18.66801         0.35192
C          8.61462         1.86161         0.28892
C          8.71096         3.27832        -0.32930
C          9.80267         1.21564         0.51437
C          9.78204         4.04203         0.47608
C          8.68829         6.42821        -0.10746
C          8.48761         7.67918         0.78680
C          9.75084         5.53693         0.54143
C          9.77439         8.50451         0.77258
C          8.53307        10.61857         0.28553
C          8.53858        12.10548         0.56681
C          9.77359         9.86514         0.75535
C          9.74760        12.80158         1.16225
C          8.51750        15.01404         1.00748
C          8.60400        16.42604         0.41179
C          9.83082        14.27568         0.87934
C          9.77609        17.17725         0.98550
C          8.60170        19.30782         0.68582
C          9.76882        18.58471         1.03946
C         11.14808         1.85724         0.25887
C         11.07782         3.28106         0.87394
C         12.34250         1.11459         0.89654
C         12.36546         4.02366         0.56783
C         11.05566         6.26992         0.61217
C         11.04176         7.72986         0.99418
C         12.33467         5.51199         0.46648
C         12.35296         8.45148         0.88963
C         11.06533        10.60908         0.88512
C         11.09093        12.09958         0.96037
C         12.30142         9.88758         0.38512
C         12.25001        12.87204         0.29120
C         11.03159        14.96331         1.00110
C         10.94248        16.41001         1.36244
C         12.30898        14.34643         0.77382
C         12.27385        17.21322         1.60192
C         11.02306        19.29722         1.21381
C         12.22595        18.66476         1.36049
C         13.63068         1.87779         0.60477
C         13.54354         3.33098         0.48519
C         14.81534         1.20399         0.43776
C         14.77999         4.05369        -0.00978
C         13.60942         6.23552         0.77222
C         13.63260         7.71915         0.65303
C         14.86151         5.47998         0.53868
C         14.78126         8.38661         0.35564
C         13.60049        10.60565         0.81270
C         13.55259        12.06537         0.39914
C         14.75432         9.85673         0.14721
C         14.70470        12.57633        -0.09634
C         13.47412        15.17845         0.80303
C         13.50357        16.48698         1.30140
C         14.76721        14.72649         0.29397
C         14.79534        17.19297         1.49888
C         13.50122        19.41345         1.03215
C         14.78170        18.69242         1.42831
C         16.10087         1.84877         0.19577
C         16.09536         3.34942         0.40492
C         17.27653         1.17678         0.02264
C         17.31004         4.06465        -0.25483
C         16.14064         6.26083         0.38356
C         16.03785         7.67552        -0.13840
C         17.40867         5.52157         0.16421
C         17.32960         8.45137         0.04568
C         16.04439        10.55172        -0.14754
C         16.04294        12.01856         0.00721
C         17.30820         9.80744        -0.02825
C         17.18309        12.78804         0.09895
C         15.98787        15.07435         0.77084
C         16.14550        16.43429         1.43472
C         17.23932        14.19684         0.73927
C         17.17659        17.18339         0.56455
C         16.09951        19.42599         1.17699
C         17.09988        18.58595         0.40359
C         18.55103         1.86375        -0.46086
C         18.61273         3.33071         0.03383
C         19.90284         1.24972        -0.12477
C         19.83247         4.06712        -0.57184
C         18.63389         6.25663        -0.24016
C         18.68128         7.73547         0.10695
C         19.77887         5.57595        -0.49210
C         19.66051         8.51300        -0.81040
C         18.53940        10.63249         0.06194
C         18.46661        12.10326        -0.05859
C         19.83773         9.93465        -0.28075
C         19.62374        12.79546        -0.36596
C         18.44788        15.01337         0.26479
C         18.27384        16.47793        -0.00064
C         19.61132        14.28936        -0.32762
C         19.27742        17.15901        -0.71252
C         18.02176        19.24277        -0.40673
C         19.10975        18.54936        -0.99094
C         21.03660         1.96804         0.00392
C         21.12073         3.49300         0.07356
C         22.31194         4.15220        -0.59733
C         21.02982         6.26856        -0.93830
C         20.98377         7.77647        -1.08772
C         22.28121         5.45578        -0.92981
C         22.19055         8.63287        -1.18334
C         20.97332        10.74516        -0.75254
C         20.87174        12.13806        -0.72153
C         22.15661         9.99198        -1.11939
C         21.99018        12.99821        -1.10197
C         20.50777        14.99713        -1.33326
C         20.61653        16.51308        -1.03737
C         21.85663        14.31575        -1.35869
C         21.34646        17.22296        -2.14429
C         20.01787        19.22552        -1.84981
C         21.07201        18.52425        -2.47312
O         11.37799        11.30022         2.15367
O          7.48078         5.04537        -1.69166
O         11.76481         8.14965         2.19306
O          6.10354        16.95283        -1.66209
O         17.02148         5.97057         1.52194
O         19.67488        14.78062         1.06654
O         20.83317         6.90061        -2.27567
O          3.69770         2.22317        -1.24714
O          5.70072         5.92197         1.30579
O         14.33448         5.64882         1.90077
O         11.46193        16.71766         2.69372
O         14.66524        13.80444        -0.75958
O         19.47863        10.18865         1.09854
O         15.09553        10.16430        -1.25263
O          5.87726        12.27685         1.98892
O         14.71344        18.04666         2.72291
O          2.37819        10.22028         0.29743
O          9.25556         4.74758         1.64865
O         11.69396         6.08519        -0.71919
O          6.14053         2.20725        -1.04230
O         21.27718         3.86977         1.45457
H         20.46170         3.58305         1.93254
O          9.20478         3.14896        -1.68525
H          8.52267         2.68598        -2.21586
O          6.36542        14.49466        -1.67148
H          7.15777        14.95006        -2.03467
O         19.01086         8.69450        -2.08927
H         19.27490         7.93161        -2.65681
O         11.02535         3.06583         2.30205
H         10.50038         3.80547         2.69180
O          3.32531        16.75912        -2.25686
H          4.11392        16.55670        -2.80362
O         17.45718        13.84466         2.12613
H         18.40814        14.00510         2.32861
O         16.19540         3.46036         1.85145
H         16.12685         4.41100         2.11766
O          8.49819        10.50067        -1.16580
H          9.40228        10.64562        -1.51827
O         19.88929        14.86455        -2.63827
H         19.97447        13.93185        -2.92694
O         14.59204         4.11911        -1.43128
H         15.46030         4.31659        -1.86551
O          6.74962        17.04655         1.93125
H          7.47039        17.21006         2.57465
O         12.20041         9.86191        -1.05077
H         13.08207         9.68874        -1.44685
O         19.18968         7.75217         1.45474
H         18.55747         7.23848         2.00816
O          5.06415        19.29345        -1.97305
H          5.69556        18.70461        -2.44530
O         13.84996        10.43168         2.21341
H         13.05027        10.72776         2.70852
O         15.87273        20.67397         0.52660
H         15.28799        20.51228        -0.24851
O          9.40148        12.71580         2.58982
H          9.92332        11.95955         2.96315
O          8.32639         7.24905         2.14832
H          7.85686         7.96575         2.63275
O         16.68013        16.33377         2.75920
H         16.19264        16.97824         3.32243
O         19.93578         3.77159        -1.99614
H         20.34215         4.54530        -2.44289
O         11.47020         1.87872        -1.14239
H         10.75924         2.36610        -1.62673
O          7.21273        10.00313         2.22962
H          6.69098        10.83669         2.45947
O         18.39932         1.76992        -1.91330
H         19.23955         2.08743        -2.32122
O          8.80880        16.24009        -1.01807
H          8.68321        17.10794        -1.45798
O         12.40675        -0.20584         0.36205
H         12.31927        -0.11055        -0.61143
O         17.16515         4.11766        -1.69301
H         17.47469         3.23909        -2.05347
O          4.08092         8.02053         1.14365
H          4.55472         7.19638         1.47591
O          4.66726        14.62004         1.55506
H          5.06156        13.82757         2.03308
O          8.23745        15.12235         2.42573
H          8.38042        14.22792         2.82406
O         15.84652         7.51756        -1.57492
H         15.69436         8.42213        -1.94240
O          1.51478        12.74922         0.60847
H          1.53832        11.78182         0.81734
O         13.55564        19.59891        -0.40142
H         12.72895        20.04209        -0.68557
O          9.18579         6.93433        -1.35048
H          9.09214         6.23020        -2.03001
O         21.43879        16.65272         0.15832
H         20.97943        16.15123         0.87627
O          4.82548         8.28503        -2.42856
H          4.40039         7.93754        -3.24056
O          2.08969         3.79026        -3.00413
H          1.93151         2.82502        -2.93265
O         18.78436         3.28130         1.46429
H         17.88938         3.15862         1.88478
O         11.87443        12.92117        -1.11197
H         12.62965        13.32102        -1.59733
O          2.75776        16.75864         1.38036
H          3.05913        15.81980         1.42993
H          0.56286         2.91952         0.95518
H          0.50468         4.45190        -0.78317
H          2.40289         1.68552         1.82063
H          0.68871         6.04288        -2.57518
H          0.65555         8.50297        -2.27057
H          1.15178        10.55332        -2.84763
H          0.99698        12.94516        -2.39055
H          0.36228        14.73638        -1.22111
H          0.34988        17.10441        -0.48235
H          1.65105        19.14948         0.35926
H          4.75573         0.73095         1.68428
H          3.67938        20.46471         0.06108
H          7.48514         0.45546         1.51729
H          6.33709        20.49092        -0.04195
H          9.78012         0.20437         0.95026
H          8.65429        20.40627         0.63662
H         12.20181         1.03250         2.00405
H         11.00778        20.38637         1.04260
H         14.79416         0.10316         0.48128
H         13.48256        20.42694         1.52319
H         17.25636         0.07604        -0.03781
H         16.56145        19.66066         2.17307
H         19.96545         0.14906        -0.09519
H         17.92221        20.32795        -0.55592
H         21.97808         1.42502         0.19330
H         23.25930         3.59521        -0.66972
H         23.18162         5.93626        -1.34284
H         23.13940         8.13576        -1.43357
H         23.09135        10.54227        -1.30283
H         22.98740        12.54082        -1.17883
H         22.74231        14.90781        -1.63178
H         22.17994        16.70110        -2.63634
H         19.85379        20.28878        -2.07440
H         21.68148        19.03781        -3.23097
