         244
 CSIRO Nanostructure Databank - Neutral Graphene Oxide Data Set
C          1.37758         2.12103         0.70100
C          1.30641         3.43187         0.45215
C          2.44760         1.26075         0.10203
C          2.32455         4.12386        -0.41965
C          1.92328         6.25944         0.99839
C          1.96255         7.65042         1.06519
C          2.47800         5.59081        -0.09618
C          2.29922         8.44817        -0.16792
C          1.31435        10.60104         0.63343
C          1.36869        11.96783         0.89050
C          2.43216         9.91999         0.14360
C          2.54708        12.70887         0.65815
C          1.47500        14.82953         1.42907
C          1.50774        16.18936         1.68932
C          2.60306        14.14137         0.92281
C          2.68407        16.93314         1.46231
C          2.73388        18.33887         1.74052
C          3.73007         2.03258        -0.13315
C          3.68048         3.42166        -0.35195
C          4.95589         1.36098        -0.23444
C          4.86979         4.12988        -0.62542
C          3.52310         6.34594        -0.79509
C          3.57936         7.80219        -0.61605
C          4.84443         5.57791        -0.97630
C          4.78918         8.51276        -0.73995
C          3.63342        10.63267        -0.10180
C          3.69462        12.04158         0.15525
C          4.77777         9.93366        -0.60518
C          4.91333        12.78537        -0.10461
C          3.80021        14.86566         0.67232
C          3.83823        16.26775         0.95179
C          4.97010        14.21251         0.14291
C          5.03413        17.00748         0.73473
C          3.88238        19.05016         1.53825
C          5.06575        18.40513         1.03939
C          6.13209         2.05275        -0.54476
C          6.09744         3.44856        -0.70225
C          7.38774         1.30707        -0.91950
C          7.35558         4.17900        -1.11818
C          6.10167         6.34759        -0.84419
C          6.05851         7.79126        -0.80070
C          7.31637         5.65676        -0.78527
C          7.25376         8.49348        -0.59793
C          5.95993        10.70681        -0.95309
C          6.01474        12.14483        -0.66533
C          7.31444         9.91350        -0.90437
C          7.22605        12.90242        -1.00558
C          6.15067        14.94994        -0.11549
C          6.19614        16.36229         0.20281
C          7.33387        14.31912        -0.65165
C          7.37870        17.09385         0.01922
C          6.25882        19.11583         0.87506
C          7.42752        18.47174         0.40372
C          8.64052         2.08086        -0.59313
C          8.61389         3.49002        -0.63707
C          9.84073         1.40468        -0.37156
C          9.80669         4.22662        -0.43659
C          8.53441         6.33775        -0.47867
C          8.45636         7.77021        -0.15592
C          9.77150         5.66904        -0.36841
C          9.76771         8.54200         0.10158
C          8.51322        10.72884        -0.56679
C          8.58718        12.12855        -1.09452
C          9.76013        10.04628        -0.03510
C          9.84481        12.87114        -0.98753
C          8.56971        14.98514        -0.77809
C          8.56655        16.50553        -0.71056
C          9.81357        14.29519        -1.02146
C          9.86401        17.12406        -0.24802
C          8.65879        19.17392         0.40126
C          9.88023        18.49333         0.17952
C         11.06676         2.10568        -0.29505
C         11.05154         3.54293        -0.33522
C         12.29305         1.40679        -0.15702
C         12.27643         4.27691        -0.30873
C         11.00828         6.39903        -0.20004
C         11.01109         7.79659        -0.11313
C         12.26806         5.67001        -0.21216
C         12.28442         8.53697        -0.02536
C         11.02351        10.75070        -0.32462
C         11.02899        12.03031        -0.85591
C         12.30457        10.05387        -0.03658
C         12.30312        12.48014        -1.39099
C         11.05464        15.09380        -0.96630
C         11.06048        16.43993        -0.42690
C         12.27183        14.61617        -1.42351
C         12.32098        17.09687        -0.21557
C         11.11241        19.13583         0.41803
C         12.33317        18.45590         0.22996
C         13.52881         2.06974        -0.25256
C         13.53434         3.51963        -0.68095
C         14.73778         1.39638        -0.10536
C         14.83801         4.21766        -0.38075
C         13.51688         6.41100        -0.21732
C         13.53481         7.78426        -0.22254
C         14.81098         5.66551         0.03654
C         14.76283         8.51367        -0.71200
C         13.62929        10.84308        -0.13385
C         13.52906        12.04226        -1.03618
C         14.82314        10.00176        -0.52846
C         14.73686        12.82235        -1.54475
C         13.57538        15.07188        -0.97892
C         13.56029        16.42474        -0.42900
C         14.74199        14.28523        -1.01235
C         14.76468        17.08404        -0.13903
C         13.57780        19.10664         0.46625
C         14.77892        18.43588         0.30438
C         16.00892         2.06413        -0.17224
C         16.01231         3.52102        -0.38133
C         17.14708         1.38535         0.19918
C         17.32940         4.21346        -0.44266
C         16.05401         6.43929        -0.31373
C         16.05211         7.80423        -0.39130
C         17.35072         5.73357        -0.63925
C         17.27698         8.57245        -0.35005
C         16.00809        10.64057        -0.81050
C         16.04514        12.06294        -1.24375
C         17.26984         9.95194        -0.57183
C         17.32398        12.81191        -1.04933
C         16.02016        14.90793        -0.70086
C         16.02442        16.31653        -0.21555
C         17.24111        14.27588        -0.84989
C         17.30438        17.08817        -0.17599
C         16.08488        19.14811         0.61127
C         17.21434        18.60381        -0.28234
C         18.54483         1.94451         0.18993
C         18.56650         3.46789        -0.03573
C         19.37642         1.47937         1.36039
C         19.77472         4.23895         0.48152
C         18.51075         6.41528         0.05743
C         18.48629         7.88064         0.06653
C         19.57082         5.74403         0.57579
C         19.63018         8.58890         0.36864
C         18.46761        10.73889        -0.31479
C         18.51168        12.10121        -0.50147
C         19.59970        10.09082         0.44843
C         19.75670        12.85765        -0.32905
C         18.55847        15.00399        -1.02616
C         18.56936        16.43242        -0.55907
C         19.78455        14.25077        -0.54578
C         19.74466        17.12999        -0.44467
C         18.54812        19.26115        -0.05560
C         19.72754        18.57442        -0.17713
C         20.21562         2.26489         2.04019
C         20.22261         3.76415         1.89533
C         21.57684         4.40466         2.12726
C         20.58324         6.53429         1.40247
C         20.83371         7.90043         0.80234
C         21.76431         5.69527         1.81673
C         22.01800         8.58898         0.82323
C         20.94937        10.72295         0.20909
C         20.97136        12.16041        -0.05381
C         22.07722         9.97574         0.43342
C         22.17799        12.88128        -0.03410
C         21.00809        14.97105        -0.47094
C         21.02170        16.43607        -0.54225
C         22.19569        14.25781        -0.22070
C         22.18577        17.17596        -0.52376
C         20.99730        19.26677        -0.13106
C         22.16591        18.59608        -0.34927
O         16.78487        16.48386         1.06804
O          7.83193        12.48157        -2.26871
O          6.66364        10.25760        -2.15098
O         12.28226         9.34981         1.25360
O          3.98222         5.87346        -2.10564
O         12.21355        13.53549        -2.30452
O         16.97852        12.26511        -2.38539
O         18.27215         3.66341        -1.46416
O          8.93907         8.07414         1.20372
O          8.82791        10.71753         0.86875
O         16.41570        19.00322         1.99276
H         16.53174        18.03822         2.16183
O         18.70693        15.07418        -2.49714
H         18.60179        14.16130        -2.84499
O         19.89423         6.86131         2.67758
H         19.13741         7.44891         2.45759
O         14.65223         8.38453        -2.18989
H         15.19196         7.61223        -2.47005
O         14.85437         5.56208         1.51678
H         14.62147         6.44034         1.88800
O         13.47678         3.48797        -2.15925
H         14.17983         2.87547        -2.46515
O         13.91817        11.33990         1.20559
H         13.55657        10.67421         1.83662
O          7.35401         1.11627        -2.35168
H          7.30608         2.01518        -2.75581
O         19.28911        10.38646         1.87009
H         20.06374        10.09694         2.39905
O         17.50066         5.98298        -2.07055
H         18.10554         5.28396        -2.41292
O         19.19451         1.33710        -0.96998
H         18.80947         1.77919        -1.76046
O          2.64895         0.11680         0.92962
H          3.18816        -0.53675         0.44191
O          1.24746         8.26435        -1.16221
H          1.58760         8.58602        -2.02283
O         14.60851        12.91335        -2.97748
H         15.52174        12.90045        -3.34851
O         19.26160         4.23251         2.86825
H         19.44293         5.19022         3.05318
O          1.87789         4.01002        -1.80185
H          2.49484         4.55634        -2.34349
O         20.87175         3.98872        -0.42572
H         20.49265         3.90159        -1.32655
O          7.39613         4.07026        -2.58954
H          8.20673         4.52776        -2.89968
O          8.41701        16.95153        -2.11235
H          7.62092        16.50968        -2.47742
O         16.81579        18.91707        -1.64912
H         17.55248        18.66984        -2.24702
H          0.62175         1.62111         1.32416
H          0.47323         4.02764         0.85266
H          2.07793         0.90877        -0.91159
H          1.44390         5.69815         1.81516
H          1.77189         8.16503         2.01954
H          0.38033        10.04786         0.80355
H          0.46618        12.46108         1.27259
H          0.54147        14.28714         1.62546
H          0.61435        16.69647         2.08079
H          1.83040        18.83221         2.12720
H          4.99551         0.26810        -0.10975
H          3.92240        20.12647         1.75940
H          7.41155         0.29319        -0.44879
H          6.30319        20.18125         1.14484
H          9.84672         0.30524        -0.33585
H          8.67605        20.22937         0.71029
H         12.27424         0.31939         0.01044
H         11.12069        20.18199         0.75750
H         14.72755         0.32405         0.14258
H         13.57638        20.15618         0.79574
H         17.05549         0.31388         0.43788
H         15.96208        20.24230         0.41133
H         19.36129         0.39500         1.55146
H         18.56547        20.35395         0.07593
H         20.83859         1.83631         2.84133
H         22.41188         3.78712         2.49288
H         22.74334         6.17558         1.96253
H         22.95166         8.09607         1.12845
H         23.07424        10.43293         0.36097
H         23.12668        12.36418         0.16217
H         23.15630        14.78569        -0.15604
H         23.16529        16.68461        -0.60207
H         20.99723        20.35083         0.05220
H         23.12257        19.13716        -0.34101
