         651
 CSIRO Nanostructure Databank - Neutral Graphene Oxide Data Set
C          6.11942        31.68013        -1.55458
C          6.02901        32.93351        -2.09083
C          8.29797        27.60215        -0.00967
C          8.27550        28.98288        -0.00651
C          7.17199        29.73034        -0.54021
C          8.29853        31.89343        -0.24983
C          7.15157        31.11737        -0.68237
C          8.34274        33.27123        -0.25154
C          6.80550        34.06729        -1.61287
C          8.27511        36.06943        -1.41695
C          7.37509        35.12890        -2.22694
C          8.56040        37.31018        -2.27769
C         10.39113        23.07872         0.15160
C         10.60172        24.55890         0.33270
C          9.42243        25.44675         0.20101
C         10.70775        27.49731         0.78452
C          9.45187        26.80969         0.35744
C         10.74520        29.01817         0.73972
C          9.44634        29.73531         0.50935
C         10.80338        31.96138         0.42308
C          9.47097        31.21435         0.34322
C         10.78736        33.33178        -0.22588
C          9.57256        34.02852        -0.42536
C         10.78916        36.08148        -0.93136
C          9.56723        35.36395        -0.93801
C         10.80198        37.49350        -1.21180
C          9.69209        38.16032        -1.76002
C         10.83997        40.35286        -1.70837
C          9.68086        39.55801        -1.91012
C         10.83737        41.76649        -1.78620
C         13.18714        19.02702        -0.11825
C         13.10054        20.42213        -0.33278
C         11.78336        20.95210        -0.14344
C         13.29060        23.42653        -0.69781
C         11.37500        22.28497        -0.40149
C         13.24446        24.69488        -0.16171
C         11.95564        25.27288         0.30377
C         13.31461        27.51380         0.55082
C         12.00924        26.75223         0.62675
C         13.30431        29.05148         0.73741
C         11.98978        29.68379         0.35326
C         13.25337        31.78335        -0.38588
C         11.94920        31.07980        -0.09194
C         13.26660        33.26162        -0.37729
C         12.03105        33.98080        -0.43561
C         13.27767        36.07416        -0.66771
C         12.03298        35.39801        -0.65199
C         13.30684        37.54564        -0.65828
C         11.99159        38.28785        -0.89627
C         13.30280        40.30863        -1.49827
C         12.07658        39.67329        -1.38064
C         13.30231        41.72731        -1.91824
C         12.04549        42.49869        -1.74893
C         13.36077        44.60429        -1.57078
C         12.12319        43.89247        -1.65295
C         13.37515        45.97335        -1.25777
C         15.60977        14.81121         0.96602
C         15.62279        16.28605         0.58126
C         14.43069        16.93430         0.28309
C         15.63218        19.04304        -0.15790
C         14.40565        18.32530        -0.01920
C         15.60401        20.44370        -0.44106
C         14.36068        21.15695        -0.53684
C         15.68363        23.27361        -0.54977
C         14.44914        22.58097        -0.62877
C         15.71261        24.72884        -0.48075
C         14.48403        25.45184        -0.17218
C         15.66964        27.64785        -0.53073
C         14.49723        26.82755        -0.02940
C         15.81885        28.91509         0.36654
C         14.54784        29.73337         0.19601
C         15.77170        31.79362        -0.36223
C         14.52933        31.04213        -0.19135
C         15.74486        33.21621        -0.47368
C         14.49333        33.94090        -0.47900
C         15.75036        36.08124        -0.66081
C         14.50102        35.36705        -0.60207
C         15.76505        37.49609        -0.88232
C         14.55979        38.24599        -0.96458
C         15.80983        40.29288        -1.53038
C         14.55454        39.61784        -1.30571
C         15.86657        41.71898        -1.79850
C         14.60657        42.46628        -1.98554
C         15.84251        44.58123        -1.59825
C         14.62696        43.91872        -1.72830
C         15.85650        45.99814        -1.27312
C         14.58445        46.68298        -1.05539
C         15.76297        48.68808        -0.23734
C         14.56725        47.99275        -0.54301
C         15.78084        49.88909         0.47845
C         18.24052        10.60306         1.51715
C         18.19623        12.03944         1.25093
C         17.01359        12.66339         0.94929
C         18.11097        14.89088         1.06756
C         16.91701        14.11674         0.53534
C         18.08328        16.40519         1.01074
C         16.83401        17.02482         0.54541
C         18.11894        19.05284        -0.05968
C         16.86328        18.36986         0.10098
C         18.12325        20.40651        -0.48962
C         16.86058        21.12710        -0.58122
C         18.12543        23.27293        -0.90166
C         16.87849        22.53150        -0.64099
C         18.21807        24.68692        -0.38626
C         16.91764        25.42816        -0.54197
C         18.17318        27.51934        -0.76870
C         16.96409        26.85764        -0.59211
C         18.11716        29.01077        -0.94134
C         17.15865        29.67256         0.08970
C         18.21125        31.81120        -0.53026
C         16.99398        31.11393        -0.34381
C         18.18990        33.21661        -0.49579
C         16.97017        33.93575        -0.46168
C         18.20754        36.10928        -0.52032
C         16.97697        35.38472        -0.52051
C         18.24160        37.46873        -0.88034
C         17.00550        38.17374        -1.04312
C         18.28196        40.18264        -1.68316
C         16.99647        39.55755        -1.36022
C         18.29423        41.63562        -2.05430
C         17.05623        42.42267        -1.93692
C         18.31102        44.59456        -1.90855
C         17.10970        43.88357        -1.84680
C         18.36462        45.92890        -1.14552
C         17.05125        46.68113        -1.14930
C         18.31743        48.69415        -0.13783
C         17.03620        48.08860        -0.69930
C         18.22343        49.76768         0.84822
C         16.97301        50.43155         1.06456
C         18.04406        51.90939         2.71047
C         16.92945        51.56651         1.91964
C         18.16028        53.14552         3.46797
C         20.77935         6.38376         2.66607
C         20.67753         7.88900         2.70853
C         19.39858         8.44110         2.04515
C         20.62176        10.75118         2.06630
C         19.37964         9.96189         1.88448
C         20.65057        12.16660         1.62422
C         19.46585        12.76741         1.26687
C         20.68114        15.01355         1.13981
C         19.43897        14.21155         0.95663
C         20.56567        16.47717         1.54066
C         19.35031        17.13374         0.90008
C         20.59575        19.09776         0.05555
C         19.36328        18.40417         0.29677
C         20.60203        20.40985        -0.47807
C         19.36294        21.07355        -0.69875
C         20.66469        23.26928        -0.89596
C         19.40425        22.50889        -1.01289
C         20.67052        24.68142        -0.98303
C         19.44861        25.42162        -0.85998
C         20.68149        27.54055        -1.09506
C         19.43797        26.81620        -0.91350
C         20.68979        28.96888        -1.04662
C         19.46845        29.69977        -0.86145
C         20.69719        31.83355        -0.81492
C         19.46696        31.08251        -0.69518
C         20.70164        33.19873        -0.55963
C         19.45782        33.91234        -0.22487
C         20.74302        36.21898         0.02755
C         19.45087        35.41481        -0.11346
C         20.80070        37.42425        -0.91626
C         19.50369        38.19290        -0.95916
C         20.68104        40.43223        -0.87209
C         19.53342        39.52223        -1.26428
C         20.90022        41.61357        -1.85514
C         19.59473        42.35466        -2.17613
C         20.90224        44.45822        -2.28098
C         19.55795        43.84255        -2.25810
C         20.86173        46.50205        -1.64484
C         19.59217        46.85528        -1.16861
C         20.76284        48.42037         0.33990
C         19.58051        47.93526        -0.24987
C         20.67765        49.41455         1.43238
C         19.34326        50.06065         1.65296
C         20.92975        52.00034         3.11142
C         19.13111        50.99186         2.68123
C         20.64502        53.34199         3.26263
C         19.34918        53.83252         3.71941
C         20.42326        55.99067         4.36484
C         19.31977        55.16701         4.30060
C         20.43461        57.28058         5.01907
C         23.27616         3.77042         3.59063
C         22.07420         4.35851         3.20557
C         23.21591         6.54304         3.04927
C         21.99217         5.76308         2.96037
C         23.21888         7.91038         2.68896
C         21.95072         8.51410         2.10180
C         23.18596        10.74969         1.90422
C         21.92143        10.02938         2.22546
C         23.16118        12.23036         1.84768
C         21.91410        12.90573         1.66016
C         23.15079        15.04756         1.50897
C         21.92785        14.30072         1.48884
C         23.14187        16.44676         1.32192
C         21.88121        17.19437         1.28020
C         23.12713        18.91845        -0.11932
C         21.85920        18.50896         0.53132
C         23.09113        20.39098        -0.74597
C         21.84301        21.13064        -0.68124
C         23.12420        23.25109        -0.97524
C         21.87704        22.54200        -0.83750
C         23.14326        24.66711        -1.17932
C         21.91157        25.38841        -1.15159
C         23.16033        27.51395        -1.38131
C         21.90809        26.81498        -1.22977
C         23.14679        28.94031        -1.25078
C         21.94282        29.66963        -1.10613
C         23.11311        31.85810        -1.27668
C         21.94148        31.12834        -1.08237
C         23.10907        33.32986        -1.38171
C         21.85950        34.03528        -0.89290
C         23.23733        36.13832        -0.57114
C         22.03249        35.33002        -0.11789
C         23.19550        37.57826        -0.43265
C         22.01180        38.27558        -0.57402
C         23.17544        40.44835        -0.48023
C         22.00167        39.71738        -0.62220
C         23.20596        41.92197        -0.71210
C         21.98203        42.54740        -1.28439
C         23.35972        44.69903        -1.97324
C         22.06123        43.90805        -1.86776
C         23.30579        46.09988        -1.30888
C         22.06586        46.81252        -0.99297
C         23.25208        48.45367         0.40413
C         22.02754        47.85172        -0.00932
C         23.27419        49.65522         1.14883
C         22.03849        50.09148         1.84865
C         23.15759        52.28971         2.21438
C         22.05773        51.46796         2.39355
C         23.07401        53.72009         2.56001
C         21.73260        54.29505         2.96569
C         22.97684        56.16569         4.21043
C         21.69373        55.59449         3.70808
C         22.92879        57.17767         5.33414
C         21.60723        57.92502         5.35726
C         22.80952        59.92313         6.09910
C         21.62577        59.25217         5.90774
C         24.44270         4.52645         3.72658
C         25.63704         6.68642         3.48732
C         24.44231         5.92024         3.44086
C         25.64540         8.04147         3.13234
C         24.41081         8.64118         2.72565
C         25.58970        10.90298         2.71399
C         24.45410        10.03055         2.22514
C         25.69582        12.18474         1.86779
C         24.37564        12.94062         1.83946
C         25.63964        15.04136         1.43328
C         24.38962        14.34007         1.67028
C         25.63452        16.38749         1.09791
C         24.42439        17.25341         1.33152
C         25.58926        19.03734        -0.07689
C         24.39236        18.39830         0.32580
C         25.57867        20.41568        -0.50496
C         24.36147        21.10420        -0.70358
C         25.57436        23.21130        -0.90335
C         24.33655        22.51433        -0.85345
C         25.57887        24.56549        -1.34736
C         24.39300        25.35729        -1.43601
C         25.61692        27.57841        -1.79465
C         24.38870        26.79766        -1.59619
C         25.68470        28.96193        -1.48561
C         24.42974        29.65541        -1.12547
C         25.65659        31.87459        -1.57382
C         24.40541        31.16905        -1.15324
C         25.70101        33.36827        -1.42757
C         24.40528        34.09611        -1.34823
C         25.69265        36.25674        -0.94591
C         24.41024        35.50725        -0.89012
C         25.72347        37.62519        -0.43702
C         24.44659        38.27493        -0.12843
C         25.73949        40.51060        -0.08469
C         24.42087        39.78973        -0.05418
C         25.74045        41.98671        -0.43951
C         24.49035        42.65699        -0.87933
C         25.82480        44.63708        -1.38552
C         24.55309        43.92985        -1.40405
C         25.79079        46.14896        -1.53179
C         24.49422        46.66542        -0.93314
C         25.78861        48.66279        -0.00337
C         24.51904        47.85067        -0.06009
C         25.65392        50.07263         0.43817
C         24.44152        50.46190         1.19403
C         25.58439        52.56534         1.90845
C         24.41614        51.78332         1.73736
C         25.54976        53.79509         2.65899
C         24.32531        54.38089         2.97074
C         25.48310        56.24189         4.20989
C         24.26051        55.36337         4.11677
C         25.39671        57.48798         4.79616
C         24.16121        58.06076         5.26616
C         24.07046        59.35759         5.72300
C         26.87761         8.80584         3.06716
C         28.12341        10.90682         2.64670
C         26.90969        10.16058         2.79350
C         28.15251        12.27159         2.35320
C         26.85419        13.05436         2.36460
C         28.10085        14.90378         1.22753
C         26.89685        14.33376         1.57120
C         28.09400        16.13927         0.43124
C         26.80940        16.94931         0.43208
C         28.06825        19.05083        -0.13187
C         26.85103        18.38952         0.09546
C         28.07138        20.45127        -0.35984
C         26.82119        21.14179        -0.50724
C         28.02767        23.37843        -0.37656
C         26.79954        22.54188        -0.66589
C         28.07382        24.58354        -1.31300
C         26.87665        24.96321        -1.84024
C         28.10503        27.57865        -2.00378
C         26.83921        27.03330        -2.26407
C         28.14047        28.94576        -1.67848
C         26.92417        29.64724        -1.51035
C         28.19319        31.90702        -1.36573
C         26.94564        31.13631        -1.59245
C         28.21050        33.25650        -1.05571
C         26.91162        33.97186        -0.73948
C         28.23017        36.09887        -0.36670
C         27.01921        35.47503        -0.92991
C         28.16699        37.52909        -0.07595
C         26.93412        38.31293        -0.31330
C         28.23581        40.42678        -0.41389
C         26.99772        39.73864        -0.20651
C         28.20751        41.82344        -0.78397
C         27.03038        42.55113        -0.86712
C         28.27351        44.69340        -1.01184
C         27.00565        43.95823        -1.19983
C         28.32315        46.15786        -1.29475
C         27.05159        46.88686        -1.08813
C         28.28138        49.01724        -0.59235
C         27.03514        48.18816        -0.67158
C         28.27314        50.45054        -0.00460
C         26.91912        50.87750         0.58511
C         28.17808        52.51181         2.14108
C         26.88451        51.91359         1.65898
C         28.16589        53.90719         2.75185
C         26.78503        54.45541         3.09262
C         26.72275        55.65590         3.76392
C         29.35970        12.97934         2.11744
C         30.57146        15.02502         1.41041
C         29.36878        14.28752         1.59661
C         30.61418        16.28040         0.78913
C         29.40874        16.79588         0.02451
C         30.61647        18.94018        -0.49084
C         29.37017        18.34995         0.20658
C         30.60039        20.47366        -0.56874
C         29.30978        21.21083        -0.44406
C         30.55958        23.39367        -0.39685
C         29.31345        22.58634        -0.45703
C         30.55894        24.81233        -0.92207
C         29.37400        25.19006        -1.83376
C         30.66752        27.46693        -2.02958
C         29.35500        26.74242        -2.11797
C         30.74172        29.01056        -1.97479
C         29.43335        29.64402        -1.49492
C         30.75391        31.85158        -1.60431
C         29.44617        31.12854        -1.31627
C         30.70067        33.33996        -1.23661
C         29.43016        33.98694        -0.82787
C         30.72523        36.00775        -0.05065
C         29.42669        35.33422        -0.36290
C         30.77137        37.56012         0.04625
C         29.50560        38.34889         0.03594
C         30.74464        40.36481        -0.79905
C         29.48455        39.73021        -0.41918
C         30.75244        41.72534        -1.12321
C         29.45460        42.45921        -1.35880
C         30.83837        44.65220        -0.95730
C         29.54313        43.92494        -0.94154
C         30.84281        46.04511        -0.73433
C         29.63447        46.84158        -1.04220
C         30.80734        48.85483        -0.01283
C         29.61677        48.30575        -0.72245
C         30.69933        50.08840         0.67208
C         29.48289        50.79487         0.85889
C         29.44012        51.95714         1.61977
C         31.78911        17.06034         0.74929
C         33.02205        19.12645         0.34256
C         31.84829        18.37291         0.22192
C         33.10204        20.51145         0.03687
C         31.87738        21.22926        -0.38995
C         33.04991        23.37849        -0.29785
C         31.86220        22.70497        -0.25925
C         33.08236        24.88902        -0.41525
C         31.87426        25.49394        -1.12345
C         33.20173        27.51873        -1.95648
C         31.91768        26.75918        -1.61515
C         33.23357        28.94555        -1.43620
C         31.88982        29.50111        -1.01365
C         33.22490        31.79793        -0.95936
C         31.89132        31.08588        -0.73962
C         33.25190        33.19177        -0.84356
C         32.00557        33.99165        -0.90567
C         33.20813        36.04169        -0.27878
C         31.99775        35.34205        -0.34300
C         33.20224        37.46644        -0.31841
C         32.01250        38.23780        -0.35853
C         33.24831        40.26318        -1.15429
C         31.97723        39.59300        -0.77188
C         33.29558        41.74564        -1.37333
C         31.98881        42.51678        -1.53950
C         33.26443        44.58789        -0.70733
C         32.03177        43.92303        -0.97522
C         33.24293        45.95848        -0.34743
C         32.04859        46.71263        -0.38133
C         31.98170        48.09301         0.02952
C         34.27075        21.25426         0.16653
C         35.53136        23.32940        -0.15986
C         34.30844        22.65752        -0.10974
C         35.63803        24.68498        -0.58516
C         34.38400        25.34975        -1.04213
C         35.76691        27.43636        -1.59689
C         34.45887        26.70379        -1.65237
C         35.71863        28.93188        -1.45498
C         34.40882        29.62659        -1.29016
C         35.67012        31.74131        -0.81472
C         34.44313        31.06291        -0.98496
C         35.69917        33.16101        -0.60161
C         34.47314        33.89394        -0.63420
C         35.70403        35.96890        -0.25398
C         34.47622        35.30877        -0.41126
C         35.71763        37.43119        -0.05261
C         34.50026        38.11706        -0.56700
C         35.80442        40.32557        -0.68989
C         34.55100        39.55380        -0.91876
C         35.73851        41.74599        -0.76027
C         34.54291        42.46702        -0.97913
C         34.48902        43.84205        -0.71963
C         36.85564        25.32175        -0.72798
C         38.13183        27.39104        -0.82599
C         36.96806        26.71790        -1.07753
C         38.18637        28.87391        -0.58285
C         36.92296        29.62417        -0.95005
C         38.19761        31.65428        -0.47149
C         36.90558        30.97540        -0.75668
C         38.20547        33.14119        -0.33325
C         36.92298        33.86853        -0.41552
C         38.20244        36.01131        -0.34797
C         36.93905        35.26752        -0.30569
C         38.23171        37.38761        -0.30177
C         37.01652        38.19353        -0.10585
C         36.98020        39.63868        -0.42517
C         39.40802        29.61282        -1.08625
C         40.61569        31.78190        -1.16350
C         39.43744        30.96613        -0.93643
C         40.62619        33.13472        -0.98989
C         39.44557        33.89304        -0.63448
C         39.42130        35.26327        -0.60293
O         24.55018        30.44835         0.11611
O         34.71217        38.52210        -1.97215
O         21.96161        18.48393         2.01835
O         17.89291        15.61973         2.28161
O         28.84448        44.29332         0.29819
O         26.83382        25.82174        -2.94730
O         12.38045        31.28390        -1.48491
O         31.37919        20.89148        -1.75282
O         25.75702        41.54262         0.96051
O         26.00183        51.12440        -0.52803
O         20.06915        51.07244         3.71633
O         22.17038        33.96486        -2.31256
O         23.99798        10.13423         0.81712
O         18.27180        40.60196        -3.11033
O         38.30976        32.25809         0.86252
O         17.83432        49.03144        -1.49366
O         26.21671        31.49154        -2.86193
O         31.40145        34.11390        -2.28916
O         19.32750        34.58988         1.10077
O         10.69462        28.26294         2.02135
O         36.28848        37.91051         1.19106
O         33.37694        40.83609        -2.52292
O          7.11971        33.94588        -0.22846
O         25.46891        47.73000         1.08526
O         12.53602        38.11418         0.45563
O         27.19306        16.08048        -0.71870
O         26.52562        36.06520        -2.15047
O         21.26940        10.56862         3.39810
O         30.13041        27.01752        -3.32994
O         31.59706        31.31607         0.58453
O         28.71350        38.00438         1.19644
O         30.35021        24.58075         0.51095
O          9.10364        30.61808         1.64548
O         13.92408        42.01991        -3.22406
O         19.55531        43.00394        -3.49708
O         12.16810        22.95041        -1.35468
O         27.48369        51.47638         2.94546
O         29.49111        30.24128        -0.15431
O         20.20428        14.67289        -0.21595
O         23.03133        19.17571        -1.54092
O         11.41645        24.68016         1.55850
O         35.99329        28.28834        -2.76327
O         21.40542        49.04620         2.63588
O         34.41881        25.49717        -2.50415
O         18.64866        22.97550        -2.22241
O         25.17704        34.00132        -2.61148
O         29.16258        46.54293        -2.41595
O         22.18405        54.43073         1.58889
O         24.34752        38.97846         1.15892
O         22.40376        56.66827         2.98809
O         22.20104        42.60124         0.17006
O         29.06496        49.06191        -1.83067
O         20.94067        45.74415        -2.83146
O         30.84313        36.72036         1.22573
O         12.87778        26.88233         1.80295
O         18.47901        45.44471         0.26556
H         17.67381        44.92045         0.46951
O         25.18195        11.22847         4.06495
H         25.72836        11.99301         4.37104
O         33.07223        25.44020         0.92924
H         32.16306        25.30975         1.28593
O         15.86576        28.41799         1.72434
H         15.04202        28.70569         2.20263
O         20.37444        16.48045         2.97549
H         20.54502        17.39654         3.28655
O         26.05051        11.83484         0.51639
H         25.33910        11.25004         0.16100
O         19.22870         7.83823         0.75725
H         20.09427         7.89203         0.28861
O         21.95545         8.21137         0.67990
H         22.75928         8.64518         0.30237
O         23.61778        44.87690        -3.39706
H         22.82674        45.32565        -3.77400
O         29.22650        42.46253        -2.80446
H         30.09745        42.68897        -3.22733
O         20.58468         8.21187         4.11495
H         21.45017         8.02955         4.53730
O         16.93747        14.17154        -0.91733
H         17.76459        13.74744        -1.23109
O         20.98102        36.87605        -2.24633
H         21.01608        37.61301        -2.89197
O         38.27689        28.93978         0.88848
H         38.33781        29.88616         1.14790
O          8.92558        36.87098        -3.59751
H          9.19246        37.65461        -4.12031
O         17.59858        29.29951        -2.26872
H         18.23108        28.94354        -2.92675
O          7.57384        36.55775        -0.25817
H          7.26829        35.77293         0.25389
O         20.73402        36.76731         1.36004
H         20.20911        36.15375         1.92380
O         21.42228        41.07492        -3.08430
H         20.97484        41.54135        -3.82723
O         31.84897        42.75877        -2.98760
H         32.28076        41.98621        -3.43062
O         22.99629        56.45197         6.59297
H         23.01136        57.11266         7.31634
O         24.25336        54.48945         5.29263
H         25.14324        54.08538         5.37403
O         18.39894        24.52085         1.06644
H         18.33968        25.40864         1.48008
O         26.59641        13.44042         3.75092
H         27.33056        14.01999         4.04485
O         13.39219        29.28477         2.19394
H         12.75133        28.64350         2.60046
O         15.30282        28.11175        -1.85532
H         15.49912        27.40284        -2.50155
O         25.74324        46.47597        -2.95018
H         25.06579        45.88711        -3.37531
O         28.83271        54.80939         1.85486
H         28.28914        54.91136         1.04666
O         29.52487        18.55133         1.64255
H         29.23023        19.45882         1.86817
O         24.56690        17.84517         2.67086
H         23.71076        18.30063         2.85817
O         33.16504        27.66018        -3.40975
H         33.49136        26.81100        -3.78667
O         11.10843        32.19611         1.81902
H         10.52907        31.59041         2.34418
O         22.38718        34.86871         1.20574
H         22.23087        35.62573         1.81871
O         20.18826        40.98088         0.37747
H         20.92439        41.50339         0.78789
O         14.50696        14.15014         0.35373
H         14.74417        14.02018        -0.58992
O         31.04670        31.76870        -2.97978
H         31.42139        32.63870        -3.26366
O         31.64519        28.85812         0.24834
H         31.51007        29.62484         0.88374
O         30.64330        18.49101        -1.85321
H         31.20178        19.13123        -2.35251
O         26.66368        33.75762         0.67994
H         27.48571        33.94951         1.18005
O         29.63852        16.38854        -1.32751
H         28.76919        16.38626        -1.78862
O         17.90808        29.73780         1.31860
H         17.35098        29.30266         2.01262
O         28.47151        51.36398        -1.11351
H         27.77593        51.17815        -1.78142
O         29.65740        24.53420        -3.08578
H         29.98063        25.22757        -3.71199
O         30.97430        29.41509        -3.32154
H         31.70481        28.85905        -3.68468
O         27.84208        23.83837         0.99963
H         28.66500        24.32902         1.24189
H          5.41978        30.92795        -1.95594
H          5.30682        33.10273        -2.90453
H          7.41543        27.05732        -0.37887
H          6.32785        29.15119        -0.94678
H          7.23805        35.31356        -3.30124
H          7.61682        37.92201        -2.33792
H          9.66633        22.63626         0.85264
H          8.48849        24.98341        -0.15330
H          8.75399        40.04873        -2.24478
H          9.87855        42.30145        -1.85819
H         12.25385        18.46571         0.04057
H         11.05632        20.27822         0.33605
H         11.19146        44.47093        -1.55825
H         12.42096        46.49834        -1.10083
H         15.49090        14.72184         2.07618
H         13.48706        16.37073         0.32503
H         13.59976        48.45762        -0.29976
H         14.82027        50.36028         0.73766
H         17.30960        10.03150         1.38453
H         16.08581        12.07169         0.91509
H         16.01539        52.17685         1.96029
H         17.22099        53.67795         3.68956
H         19.85686         5.78423         2.63258
H         18.51942         8.13731         2.66923
H         18.37372        55.50709         4.74976
H         19.46957        57.76387         5.24142
H         23.30718         2.69101         3.79572
H         21.16428         3.74811         3.11759
H         22.79327        60.95271         6.48344
H         20.66887        59.75450         6.11475
H         25.38044         4.04153         4.03297
H         26.57751         6.19195         3.77247
H         26.30868        58.10172         4.88004
H         24.96678        59.99503         5.75204
H         27.82273         8.26110         3.21900
H         29.07740        10.35777         2.70437
H         28.78302        53.88948         3.68869
H         27.65965        56.19221         3.98150
H         30.31932        12.46077         2.26856
H         31.50501        14.60406         1.81708
H         31.58337        50.44387         1.22499
H         30.37919        52.38918         1.99949
H         32.69483        16.66238         1.23722
H         33.91952        18.64063         0.75847
H         34.18680        46.45417        -0.07704
H         32.87869        48.53775         0.48773
H         35.20767        20.74666         0.44174
H         36.45504        22.77316         0.06166
H         36.64569        42.31896        -0.51337
H         35.41491        44.35701        -0.42218
H         37.77324        24.79654        -0.42036
H         38.99146        26.81755        -0.44304
H         39.18679        37.91236        -0.45880
H         37.92689        40.19932        -0.37128
H         40.30016        29.05714        -1.41209
H         41.53967        31.26669        -1.46556
H         41.55720        33.69464        -1.16501
H         40.34343        35.83062        -0.80298
