         404
 CSIRO Nanostructure Databank - Neutral Graphene Oxide Data Set
C          1.44132         1.94972         1.99741
C          1.37305         3.34868         1.85427
C          2.64396         1.28035         1.87111
C          2.50786         4.10783         1.53912
C          1.35436         6.32330         1.86491
C          1.34706         7.74315         1.77238
C          2.44731         5.56689         1.48083
C          2.47688         8.48678         1.44389
C          1.27585        10.67489         1.33081
C          1.29430        12.04873         1.23707
C          2.48421         9.93881         1.38835
C          2.50942        12.79067         1.22378
C          1.26932        14.96620         0.95013
C          1.24161        16.33155         0.77664
C          2.47475        14.20759         1.03811
C          2.43695        17.06223         0.36153
C          2.50217        18.53291         0.36623
C          3.83538         1.99697         1.55849
C          3.75420         3.41280         1.34128
C          5.08243         1.33133         1.47337
C          4.95226         4.10216         1.00254
C          3.61480         6.30653         0.95635
C          3.71790         7.77483         1.18801
C          4.88550         5.55359         0.70887
C          4.92419         8.42733         1.18080
C          3.71148        10.65457         1.38446
C          3.75362        12.06911         1.32896
C          4.96607         9.87884         1.48049
C          5.04311        12.76190         1.30585
C          3.72980        14.96706         1.13617
C          3.77228        16.32245         0.52988
C          5.06350        14.24886         1.33641
C          5.00937        17.09713         0.62471
C          3.68914        19.18492         0.33669
C          4.97236        18.50005         0.41106
C          6.27708         2.03396         1.23077
C          6.18604         3.44795         1.01529
C          7.54022         1.36245         1.09677
C          7.43385         4.21895         0.82262
C          6.13184         6.30056         0.66378
C          6.25323         7.68675         1.18803
C          7.28327         5.55370         0.11382
C          7.40450         8.44307         0.53849
C          6.27654        10.61655         1.35532
C          6.24161        12.09068         1.20197
C          7.51042         9.86453         0.92909
C          7.58431        12.81221         1.29817
C          6.30062        14.98430         1.00749
C          6.24732        16.41282         0.79259
C          7.53030        14.29090         0.96321
C          7.44510        17.15734         0.65867
C          6.17146        19.22060         0.33333
C          7.42435        18.55997         0.40733
C          8.72479         2.01927         0.74237
C          8.73601         3.49471         0.65509
C          9.93329         1.35234         0.44646
C          9.85882         4.16870        -0.03231
C          8.55066         6.34293        -0.01588
C          8.52530         7.75113         0.03270
C          9.70551         5.56828        -0.45347
C          9.70786         8.50989        -0.50200
C          8.69489        10.66610         0.49134
C          8.67037        12.12876         0.49045
C          9.75006        10.00362        -0.32762
C          9.97381        12.77421         0.43548
C          8.72956        14.98373         0.73429
C          8.72316        16.45052         0.74781
C         10.02946        14.31557         0.60694
C         10.00043        17.20428         0.41349
C          8.63655        19.27254         0.15504
C          9.88221        18.63620         0.05207
C         11.10506         2.05279         0.06526
C         11.05790         3.48991        -0.19852
C         12.32243         1.36666        -0.08825
C         12.29508         4.19957        -0.49568
C         11.03252         6.35009        -0.77958
C         11.00897         7.80637        -0.68332
C         12.29669         5.63672        -0.62694
C         12.20512         8.50221        -0.81059
C         11.02203        10.74552        -0.49575
C         11.11336        12.09418        -0.22916
C         12.16852         9.97512        -1.00508
C         12.33887        12.84943        -0.47091
C         11.19333        15.03533         0.02718
C         11.17324        16.44177        -0.07235
C         12.34568        14.30551        -0.38299
C         12.29848        17.16088        -0.54933
C         11.05630        19.31251        -0.30888
C         12.28884        18.62862        -0.53437
C         13.52787         2.05469        -0.36814
C         13.50017         3.48075        -0.52390
C         14.77411         1.38938        -0.37605
C         14.80004         4.17616        -0.54249
C         13.48356         6.39337        -0.67728
C         13.46380         7.80506        -0.85876
C         14.77999         5.69149        -0.56392
C         14.71154         8.54783        -0.94103
C         13.47603        10.72088        -1.12186
C         13.49652        12.17699        -0.85285
C         14.71245         9.93774        -0.98350
C         14.73492        12.87827        -1.11014
C         13.50714        15.02618        -0.78716
C         13.47091        16.44509        -0.87341
C         14.73276        14.32930        -1.12752
C         14.67737        17.17080        -1.29731
C         13.46751        19.35257        -0.67904
C         14.70633        18.73032        -1.13664
C         16.01118         2.00549        -0.70293
C         16.02865         3.44384        -0.95225
C         17.18349         1.20819        -0.52248
C         17.15912         4.21084        -1.30056
C         15.99543         6.40370        -0.98435
C         15.97742         7.81741        -1.04429
C         17.17421         5.67367        -1.24098
C         17.19294         8.49447        -1.27576
C         15.95802        10.71067        -0.96116
C         15.90672        12.14990        -1.29611
C         17.24730         9.95953        -1.14277
C         17.15403        12.81534        -1.68087
C         15.92510        15.03928        -1.32504
C         15.96980        16.47469        -1.27467
C         17.16817        14.33154        -1.66824
C         17.16413        17.18981        -1.35278
C         16.01257        19.32652        -0.91472
C         17.20064        18.62080        -1.11859
C         18.42097         1.54328        -1.10500
C         18.37276         3.58633        -1.73841
C         19.73785         1.28988        -0.72543
C         19.64660         4.17721        -1.69549
C         18.37076         6.37581        -1.54707
C         18.39902         7.78929        -1.52895
C         19.60618         5.64136        -1.87340
C         19.66592         8.51605        -1.55970
C         18.40974        10.65647        -1.81576
C         18.44659        12.12832        -1.51872
C         19.68780         9.92868        -1.52319
C         19.62462        12.81362        -1.28915
C         18.46059        14.99748        -1.44331
C         18.44263        16.46548        -1.52818
C         19.63713        14.28479        -1.22630
C         19.74825        17.19537        -1.30260
C         18.46171        19.27861        -0.89657
C         19.69237        18.61931        -0.89941
C         20.88530         2.04526        -1.16380
C         20.87204         3.44619        -1.58742
C         22.12707         1.42072        -0.95190
C         22.12586         4.16638        -1.62576
C         20.92518         6.38626        -1.88548
C         20.90630         7.81496        -1.55540
C         22.15248         5.60393        -1.69164
C         22.12233         8.46834        -1.28959
C         20.86426        10.65671        -1.23946
C         20.84657        12.05164        -1.10269
C         22.08506         9.89102        -0.77025
C         22.05270        12.72653        -0.58922
C         20.86287        14.99147        -0.92288
C         20.92890        16.39167        -0.93054
C         22.05449        14.23965        -0.48687
C         22.12236        17.08114        -0.56209
C         20.91246        19.24991        -0.57468
C         22.12902        18.52926        -0.47299
C         23.36398         2.07592        -1.14183
C         23.37401         3.47422        -1.45143
C         24.58545         1.40576        -0.91922
C         24.63699         4.12973        -1.54777
C         23.34200         6.33101        -1.52942
C         23.32983         7.74525        -1.34405
C         24.62437         5.60361        -1.69381
C         24.57979         8.48482        -1.01876
C         23.35508        10.68090        -0.97865
C         23.36025        12.03666        -0.75107
C         24.61681         9.96249        -1.36122
C         24.59393        12.78886        -0.66111
C         23.34846        14.94247        -0.40573
C         23.31912        16.34382        -0.33191
C         24.58555        14.19498        -0.40007
C         24.53180        17.07777         0.06205
C         23.34950        19.22086        -0.28150
C         24.57528        18.54661        -0.09562
C         25.84148         2.02358        -1.07788
C         25.86693         3.43600        -1.44572
C         26.97981         1.25539        -0.64631
C         27.11789         4.19902        -1.46768
C         25.90130         6.35221        -1.47219
C         25.88155         7.76099        -1.00650
C         27.15157         5.60953        -1.29760
C         27.15765         8.48878        -1.05178
C         25.84761        10.67773        -0.88222
C         25.84016        12.06274        -0.70657
C         27.11831         9.92026        -0.58635
C         27.09871        12.79265        -0.58232
C         25.82665        14.87865        -0.25320
C         25.84584        16.30680         0.09078
C         27.07201        14.20563        -0.39431
C         27.09364        17.07012        -0.05250
C         25.80647        19.20229        -0.00468
C         27.05723        18.50450         0.01277
C         28.30544         1.54630        -1.00541
C         28.37931         3.59670        -1.60873
C         29.51607         1.27209        -0.36333
C         29.59879         4.21053        -1.22954
C         28.35752         6.32727        -1.19511
C         28.35310         7.78574        -1.13427
C         29.59655         5.63112        -1.10213
C         29.62388         8.47276        -1.08746
C         28.31649        10.69409        -1.07008
C         28.33500        12.13871        -0.77365
C         29.61399         9.94069        -1.21254
C         29.56710        12.84125        -0.80217
C         28.30915        14.93309        -0.37623
C         28.30122        16.38176        -0.23340
C         29.52439        14.25319        -0.60171
C         29.52885        17.12136        -0.21060
C         28.27172        19.21863        -0.01131
C         29.51322        18.54778        -0.08404
C         30.72722         2.03206        -0.57664
C         30.78424         3.44399        -0.94375
C         31.91645         1.40319        -0.18393
C         32.00953         4.16340        -0.81357
C         30.83706         6.33274        -0.98619
C         30.84051         7.78784        -1.01376
C         32.02827         5.59673        -0.93618
C         32.08767         8.52211        -0.97524
C         30.85859        10.68454        -1.00236
C         30.83173        12.11454        -0.90073
C         32.05838         9.94667        -0.95170
C         32.05943        12.80321        -0.72199
C         30.76664        15.03646        -0.69978
C         30.77427        16.45395        -0.28419
C         32.08095        14.27028        -0.74813
C         31.98655        17.13571        -0.05441
C         30.75199        19.24559        -0.10618
C         31.98682        18.58978        -0.04447
C         33.16500         2.06928        -0.16196
C         33.22280         3.46703        -0.46619
C         34.33486         1.37863         0.23141
C         34.46927         4.13466        -0.34310
C         33.31209         6.32980        -0.99868
C         33.33526         7.80829        -0.87109
C         34.59016         5.56643        -0.70343
C         34.56306         8.45546        -0.66704
C         33.32490        10.69253        -0.95852
C         33.30401        12.12334        -0.60740
C         34.62650         9.92555        -0.80462
C         34.49635        12.78599        -0.24760
C         33.27332        14.95606        -0.24558
C         33.18887        16.32478         0.10083
C         34.45402        14.20960         0.01893
C         34.33321        16.87658         0.70776
C         33.20021        19.40195        -0.16139
C         34.37948        19.05379         0.47638
C         35.56126         2.04094         0.34855
C         35.61974         3.43721         0.04675
C         36.71691         1.35051         0.86976
C         36.91198         4.14588         0.11257
C         35.77504         6.32285        -0.23984
C         35.77365         7.74357        -0.30084
C         36.92306         5.62655         0.17204
C         36.97621         8.43767         0.01569
C         35.79433        10.67289        -0.31481
C         35.74905        12.05222        -0.09273
C         37.04031         9.90581        -0.17450
C         36.93008        12.73570         0.40669
C         35.62939        14.89471         0.42113
C         35.59592        16.27665         0.65444
C         36.78507        14.11578         0.98453
C         36.88316        17.08294         0.63085
C         35.73953        19.44179         0.36504
C         36.82384        18.61411         0.81057
C         37.90235         1.99468         1.12669
C         38.09492         3.39549         0.69102
C         38.99717         1.35540         1.81627
C         39.18587         4.18264         1.28838
C         38.09315         6.31985         0.58190
C         38.12108         7.74629         0.49040
C         39.21925         5.59495         1.14538
C         39.30235         8.46644         0.95329
C         38.28339        10.65369         0.26899
C         38.13659        12.08430         0.61137
C         39.36603         9.88516         0.91143
C         39.28920        12.77874         1.13014
C         38.05828        14.90723         1.10807
C         37.94575        16.37191         1.48782
C         39.26207        14.21979         1.26690
C         39.26834        17.09081         1.44483
C         38.04368        19.22571         1.07515
C         39.26313        18.50443         1.33274
C         40.09796         2.06213         2.19661
C         40.19920         3.49189         1.98708
C         41.30335         4.21802         2.48418
C         40.33903         6.30637         1.65951
C         40.38384         7.75337         1.54501
C         41.37455         5.58822         2.30528
C         41.48545         8.47921         2.05241
C         40.45645        10.59561         1.45795
C         40.46645        12.06140         1.45533
C         41.52149         9.86067         2.02124
C         41.62085        12.78196         1.82504
C         40.47977        14.92494         1.59180
C         40.48285        16.38688         1.58935
C         41.63015        14.17807         1.86543
C         41.68944        17.12183         1.66367
C         40.48538        19.20755         1.43328
C         41.68154        18.51527         1.60464
O         17.07427        13.58779        -2.93638
O         10.38597        13.41939         1.70143
O         10.15261         5.82329        -1.82343
O          9.29777         9.41376        -1.59720
O         25.14799         8.05992         0.26740
O         28.43971         2.32918        -2.17524
O         34.20651        18.03443         1.44822
O         25.37426         6.16185        -2.83907
O         21.82142        13.37122         0.71047
O         20.21436         6.06520        -3.14048
O         31.48859        14.83630        -1.96843
O         25.10239        16.61691         1.32845
O          3.12796        16.41395        -0.77367
O         34.17042        10.39986        -2.12416
O         19.25737        16.96319        -2.66149
O         14.52732        18.05151        -2.43414
O          8.35995         4.18100         1.92986
O         37.95068         3.58796        -0.76104
O         34.19260         5.85340        -2.08184
O          3.95690         5.90900        -0.42752
O         16.87843        10.43576         0.18228
O         38.07829        10.33057        -1.14291
O          9.65078        16.95383         1.80730
O          5.78522        10.18505         2.68341
O         12.67298        10.38335        -2.31837
O          8.63644        10.09979         1.89665
O         28.80709        10.38299        -2.39479
O          4.34401        14.86779         2.46070
O         14.97895         4.97111         0.70395
O         18.27827         2.31767        -2.28482
O          6.92747         5.15626        -1.26125
H          6.64473         5.95821        -1.75044
O         21.93143         9.74889         0.68406
H         21.86369        10.65101         1.06645
O          7.93961        12.72055         2.70745
H          8.24321        11.79351         2.86436
O         37.44901        16.41056         2.87398
H         38.20788        16.22648         3.46758
O         18.13309        10.53136        -3.24866
H         18.74914        11.11759        -3.73636
O         36.35694        13.89149         2.39512
H         36.44757        14.76980         2.84533
O          6.62723         7.57684         2.61136
H          6.57523         8.49447         2.98370
O         27.23962         9.86474         0.87734
H         26.47272         9.32765         1.19086
O         37.36175        16.93274        -0.73793
H         36.75222        17.41448        -1.33534
O         24.66712         9.95847        -2.83881
H         24.83167        10.87773        -3.13834
H          0.52546         1.39162         2.23715
H          0.40254         3.84384         1.99561
H          2.69543         0.19273         2.02291
H          0.44388         5.83397         2.23870
H          0.41490         8.26109         2.03753
H          0.31156        10.14939         1.33082
H          0.33547        12.57783         1.16632
H          0.31099        14.45805         1.12684
H          0.29977        16.88337         0.90791
H          1.55829        19.09675         0.40825
H          5.11406         0.24023         1.61220
H          3.70583        20.28478         0.31081
H          7.55606         0.26725         1.20653
H          6.14455        20.30639         0.16053
H          9.97899         0.25661         0.53735
H          8.57212        20.34855        -0.06494
H         12.35420         0.28097         0.08551
H         11.02759        20.40387        -0.44418
H         14.78426         0.31296        -0.14833
H         13.46422        20.43293        -0.47047
H         17.10332         0.32133         0.12362
H         16.05729        20.34745        -0.50672
H         19.92821         0.48369        -0.00078
H         18.43855        20.34889        -0.64064
H         22.13797         0.37205        -0.61883
H         20.92236        20.33451        -0.38912
H         24.55301         0.34868        -0.61547
H         23.34345        20.32097        -0.30191
H         26.78728         0.42436         0.04953
H         25.82814        20.30179        -0.04366
H         29.55854         0.46327         0.38200
H         28.25296        20.31755         0.03305
H         31.88186         0.34798         0.12551
H         30.73322        20.34536        -0.11997
H         34.26981         0.30669         0.46911
H         33.14772        20.30883        -0.78180
H         36.59977         0.29482         1.15792
H         35.98447        20.45778         0.01565
H         38.91890         0.28148         2.04056
H         38.09816        20.32543         1.06749
H         40.92285         1.55952         2.72229
H         42.10900         3.68713         3.01076
H         42.25222         6.11618         2.69883
H         42.33700         7.95175         2.49975
H         42.38965        10.37574         2.45207
H         42.55187        12.25088         2.06163
H         42.56630        14.68403         2.13747
H         42.65079        16.59954         1.75772
H         40.48605        20.30414         1.35519
H         42.62954        19.06706         1.67142
