         720
 CSIRO Nanostructure Databank - Neutral Graphene Oxide Data Set
C         22.98162        27.61301         0.79722
C         23.00453        28.94271         1.07605
C         22.99297        31.69081         2.10462
C         23.00806        32.99116         2.57077
C         23.11335        36.75781         2.18268
C         23.01386        37.85447         1.33722
C         22.79358        40.36106        -0.10309
C         22.81854        41.69452        -0.28101
C         22.95489        44.63105        -0.89887
C         22.98351        45.98678        -1.20071
C         25.41957        24.77067         0.48463
C         24.23018        25.41008         0.55678
C         25.42047        27.44248         1.55102
C         24.12110        26.75635         1.14011
C         25.42840        28.91698         1.55945
C         24.21003        29.61916         1.49555
C         25.44499        31.74047         1.85053
C         24.20738        31.03008         1.78394
C         25.41763        33.14607         2.09374
C         24.22998        33.69140         2.56336
C         25.37065        36.19929         1.28570
C         24.25907        35.96476         2.15747
C         25.28708        37.42315         0.52893
C         24.10161        38.19936         0.51672
C         25.31651        40.19885        -0.48132
C         24.01449        39.50878        -0.20073
C         25.36732        41.68748        -0.37719
C         24.08759        42.47174        -0.30511
C         25.39844        44.52313        -0.96195
C         24.14179        43.89172        -0.74488
C         25.41658        45.90647        -1.26893
C         24.21608        46.64891        -1.35862
C         25.43611        48.77539        -1.61185
C         24.26504        48.07680        -1.59651
C         27.94284        23.41693        -0.03085
C         27.88472        24.66213         0.67418
C         26.68412        25.35283         0.90564
C         27.88430        27.36841         1.72975
C         26.70790        26.71126         1.40856
C         27.86579        28.82115         2.04881
C         26.65417        29.60660         1.73191
C         27.94436        31.71785         1.89876
C         26.68950        31.01526         1.82113
C         27.94313        33.20774         1.86621
C         26.63916        34.00726         1.96732
C         27.76361        35.80709         0.61699
C         26.54820        35.34570         1.29058
C         27.76815        37.21335        -0.07992
C         26.44607        37.94172        -0.31597
C         27.75657        40.12809        -0.17070
C         26.57149        39.45666        -0.22528
C         27.83687        41.54044        -0.67006
C         26.61459        42.34659        -0.76649
C         27.89363        44.42213        -0.93454
C         26.65902        43.75731        -0.89371
C         27.95229        45.86112        -1.21274
C         26.69189        46.63189        -1.46103
C         27.91474        48.80115        -1.33175
C         26.70823        48.12196        -1.42804
C         28.03198        50.23624        -1.47636
C         30.40791        23.36042         0.01545
C         29.12622        22.78468        -0.29422
C         30.43624        24.61958         0.72999
C         29.15754        25.18451         1.19482
C         30.45291        27.33163         1.79403
C         29.15831        26.62880         1.78935
C         30.50034        28.75731         2.35968
C         29.17933        29.56954         2.23615
C         30.38679        31.73984         1.60648
C         29.17107        31.02753         1.90456
C         30.35421        33.09679         1.27592
C         29.14318        33.85418         1.30999
C         30.26444        35.86456         0.41978
C         29.08302        35.18408         0.87615
C         30.24486        37.25823         0.07356
C         29.01916        37.96253        -0.05312
C         30.22085        40.11229         0.01164
C         29.02903        39.41163        -0.04018
C         30.23253        41.60792         0.18130
C         29.16377        42.23692        -0.71969
C         30.37904        44.49073        -0.42641
C         29.23518        43.72597        -1.07823
C         30.41404        45.86217        -0.47131
C         29.14921        46.60381        -0.72478
C         30.47864        48.76295        -1.04278
C         29.13609        48.08596        -0.84720
C         30.38100        50.23341        -0.67562
C         29.16360        50.91847        -1.16676
C         32.80737        20.76760        -1.26574
C         31.63131        21.43534        -1.02080
C         32.89508        23.45872        -0.26785
C         31.59342        22.71346        -0.38497
C         32.86410        24.48933         0.83666
C         31.65112        25.23147         1.11480
C         32.87294        27.42376         1.59055
C         31.63281        26.62326         1.61318
C         32.88510        28.78413         1.46619
C         31.71101        29.55975         1.88299
C         32.84282        31.56255         0.79092
C         31.69314        31.02371         1.58627
C         32.83155        33.02616         0.55827
C         31.59175        33.79571         0.88264
C         32.70011        35.85422         0.09474
C         31.49944        35.18092         0.38769
C         32.69330        37.27186         0.05027
C         31.48893        37.95982        -0.00819
C         32.77302        40.14270        -0.00124
C         31.49188        39.42363        -0.36347
C         32.78263        41.60754         0.06058
C         31.58009        42.27948         0.04842
C         32.75501        44.51525         0.54514
C         31.51432        43.75645         0.16806
C         32.83289        45.94513         0.15091
C         31.62140        46.63824        -0.19027
C         32.88580        48.74599        -0.32371
C         31.65334        48.03216        -0.41271
C         32.93952        50.16594        -0.51996
C         31.69136        50.96202        -0.48190
C         32.97449        52.98412        -1.04860
C         31.79124        52.40409        -0.74291
C         35.32704        19.23231        -1.55766
C         35.30251        20.50684        -0.93964
C         34.08644        21.28521        -0.82757
C         35.36591        23.08112         0.23325
C         34.11827        22.55493        -0.24162
C         35.34312        24.30866         0.96213
C         34.09556        24.73584         1.44525
C         35.31674        27.27827         1.12086
C         34.17893        26.81535         1.71587
C         35.13209        28.57981         0.35848
C         34.20072        29.49464         1.20098
C         35.11307        31.43858        -0.21826
C         33.97428        30.84568         0.54950
C         35.06407        32.86730        -0.65377
C         33.77119        33.66682        -0.44880
C         35.12244        35.79783        -0.37238
C         33.94001        35.13700        -0.14192
C         35.20599        37.24287        -0.23072
C         33.99802        37.97156         0.32120
C         35.22840        40.17309        -0.22625
C         33.94090        39.45109         0.03266
C         35.25455        41.60223         0.26604
C         34.05718        42.30107         0.28729
C         35.28758        44.47385         0.51237
C         34.02743        43.72251         0.86345
C         35.31366        45.82391         0.21648
C         34.07205        46.59122         0.06398
C         35.33685        48.70365        -0.28603
C         34.11291        48.01053        -0.17883
C         35.38718        50.09327        -0.53258
C         34.16503        50.83331        -0.68423
C         35.44571        52.84665        -1.33027
C         34.21922        52.24095        -1.03350
C         35.58179        54.25680        -1.66684
C         37.74220        19.01613        -1.20680
C         36.50453        18.52397        -1.70078
C         37.74464        20.25227        -0.52713
C         36.53858        21.02212        -0.43029
C         37.78512        22.93036         0.69739
C         36.55123        22.31644         0.15848
C         37.80087        24.44256         0.67080
C         36.59847        25.02706         1.45031
C         37.75009        27.21241         0.89342
C         36.57525        26.55460         1.16601
C         37.77205        28.58687         0.32396
C         36.45884        29.26005         0.00874
C         37.70442        31.54129        -0.18645
C         36.45001        30.73537        -0.23533
C         37.66244        32.89479        -0.61257
C         36.35823        33.60786        -1.01992
C         37.54749        35.78955        -1.09763
C         36.42112        35.02493        -0.40750
C         37.58921        37.28077        -0.96470
C         36.38214        37.92572        -0.38211
C         37.72243        39.99239         0.32915
C         36.42756        39.32315         0.11884
C         37.71671        41.45358         0.67612
C         36.53847        42.20655         0.59920
C         37.80495        44.43834         0.46048
C         36.53130        43.70122         0.72336
C         37.77196        45.86653         0.12292
C         36.58061        46.52365         0.01719
C         37.78709        48.71330         0.25546
C         36.63213        47.95984        -0.43737
C         37.87702        50.12931        -0.25030
C         36.64129        50.77651        -0.61828
C         37.91882        52.75589        -1.24117
C         36.67995        52.12445        -1.08361
C         37.99029        53.91998        -2.18484
C         36.77413        54.79835        -2.00238
C         40.14830        16.32961        -2.43890
C         38.99371        16.97315        -2.07998
C         40.20938        18.89620        -1.21335
C         38.99623        18.29177        -1.46644
C         40.29775        20.15850        -0.45434
C         39.01141        20.78574         0.03051
C         40.35203        22.95130         0.42250
C         39.09879        22.19795         0.53659
C         40.46051        24.33839         1.04317
C         39.10462        25.05311         1.16340
C         40.32441        27.34385         1.09077
C         39.05588        26.54657         1.14633
C         40.26434        28.83919         0.96111
C         39.00703        29.44954         0.40109
C         40.14088        31.67559         0.08175
C         38.94150        30.92959         0.15474
C         40.11500        32.99950        -0.44742
C         38.85812        33.61657        -0.75121
C         40.08973        35.79542        -1.28816
C         38.80572        34.99046        -1.41545
C         40.18993        37.29218        -1.36553
C         38.89217        38.05629        -1.03052
C         40.25872        40.00974         0.04210
C         38.94183        39.39922        -0.33723
C         40.22886        41.41431         0.54501
C         39.03723        41.88526         1.15754
C         40.30294        44.42732         0.47983
C         39.06799        43.85870        -0.15557
C         40.29568        45.80142         0.58959
C         39.10520        46.52386         0.06861
C         40.32668        48.70636         0.58749
C         39.11882        48.00348         0.09456
C         40.24462        50.22125         0.61468
C         39.06946        50.80391        -0.16394
C         40.41944        52.88447        -0.74045
C         39.05397        52.30766        -0.36632
C         40.49161        54.00756        -1.71894
C         39.32395        54.63089        -2.21670
C         40.66753        56.46466        -3.07651
C         39.43641        55.82904        -2.93674
C         42.63246        16.35060        -2.60565
C         41.43605        16.90793        -2.19640
C         42.67124        19.02034        -1.70997
C         41.50443        18.13677        -1.32618
C         42.67402        20.44605        -1.24918
C         41.49272        21.00981        -0.57420
C         42.74345        23.13219        -0.25566
C         41.49863        22.35500        -0.14880
C         42.75432        24.50183         0.02440
C         41.43908        25.22153         0.21133
C         42.74693        27.39417         0.47552
C         41.57139        26.65694         0.70454
C         42.79518        28.84892         0.52725
C         41.54552        29.60914         0.78403
C         42.75873        31.82131         0.19955
C         41.45525        31.08859         0.48592
C         42.68347        33.30186        -0.19165
C         41.32992        33.65770        -0.84601
C         43.04677        36.10075        -1.21665
C         41.18855        34.94147        -1.42901
C         42.85384        37.42351        -1.00430
C         41.52143        38.07440        -1.20453
C         42.76201        40.23644        -0.48899
C         41.52395        39.39167        -0.44311
C         42.66113        41.65502        -0.04315
C         41.41589        42.20171         0.55430
C         42.65326        44.30529         1.26742
C         41.43628        43.60284         0.75456
C         42.63156        45.77902         1.59898
C         41.30705        46.57603         1.42873
C         42.57779        48.88290         1.58184
C         41.42507        48.04805         1.03874
C         42.76189        50.14297         0.70029
C         41.59526        50.77626         0.22602
C         42.97102        52.49847        -1.03405
C         41.66935        52.11159        -0.40240
C         43.06570        53.83315        -1.79790
C         41.74998        54.57292        -1.99051
C         43.11263        56.54488        -2.62839
C         41.83539        55.84056        -2.61014
C         43.88189        16.99706        -2.36522
C         45.19237        19.03465        -1.71427
C         43.96140        18.31280        -1.92689
C         45.18380        20.40497        -1.28809
C         43.97009        21.11444        -1.04908
C         45.20074        23.17654        -0.55594
C         43.96522        22.45399        -0.60673
C         45.18530        24.54678        -0.25009
C         43.97218        25.24440         0.01601
C         45.18251        27.40229         0.11898
C         43.96792        26.67304         0.19780
C         45.19714        28.80204         0.08514
C         43.98060        29.53130         0.20014
C         45.24210        31.69343        -0.46322
C         44.03887        31.02049         0.08494
C         45.22489        33.09809        -0.66663
C         44.02992        33.83777        -0.75284
C         45.36767        35.97046        -1.56339
C         44.23054        35.35317        -0.72599
C         45.41400        37.52142        -1.22211
C         44.11338        38.21668        -0.82980
C         45.18856        40.53855        -1.02821
C         43.96831        39.69626        -0.83240
C         45.19533        41.83257        -0.30318
C         43.92140        42.41833         0.19794
C         45.25659        44.43491         1.14171
C         43.97365        43.53345         1.23975
C         45.24411        45.90860         1.31953
C         43.97484        46.51227         1.96333
C         45.18243        48.81961         1.73539
C         43.88680        48.07247         1.83782
C         45.15466        50.34112         1.45532
C         44.02508        50.75030         0.54342
C         45.51574        52.64733        -0.48994
C         44.19821        51.86995        -0.41097
C         45.33379        54.17467        -0.59941
C         44.11984        54.77676        -1.23971
C         44.16506        56.10198        -1.91012
C         47.63830        19.01356        -1.56301
C         46.44837        18.38585        -1.86457
C         47.67106        20.36729        -1.12301
C         46.43103        21.07363        -1.04083
C         47.68867        23.11173        -0.53059
C         46.44272        22.46401        -0.74508
C         47.73746        24.57552        -0.50500
C         46.44161        25.30495        -0.35138
C         47.75719        27.39445         0.08031
C         46.46618        26.65220         0.31211
C         47.75499        28.81278         0.03399
C         46.47310        29.46968        -0.27610
C         47.84870        31.61545        -0.77655
C         46.47771        30.92890        -0.66459
C         47.76411        33.12194        -0.69285
C         46.52618        33.78367        -0.86929
C         47.83760        35.61452        -1.67974
C         46.59179        35.12833        -1.29429
C         47.81052        37.84880        -1.85063
C         46.58298        38.39027        -1.56859
C         47.85719        40.49014        -1.14198
C         46.52576        39.86051        -1.37310
C         47.99751        41.88540        -1.07444
C         46.17233        42.76290        -0.49527
C         47.72862        44.66889         0.23069
C         46.46432        43.89202         0.39455
C         47.70665        45.99508         0.73157
C         46.43383        46.60409         1.18905
C         47.74254        48.82406         1.48911
C         46.47481        48.04256         1.60984
C         47.67555        50.29903         1.27564
C         46.50023        50.94494         1.09064
C         47.79723        53.04214         0.42614
C         46.45131        52.42039         0.74207
C         47.75034        54.38505        -0.11299
C         46.59995        54.94032        -0.55609
C         50.16318        20.31461        -0.70069
C         48.88581        21.01420        -0.72563
C         50.12708        22.95520         0.30962
C         48.87883        22.38094        -0.38572
C         50.06862        24.50237         0.60830
C         49.08176        25.25702        -0.31429
C         50.15308        27.38229         0.69684
C         48.95256        26.69319         0.12608
C         50.16844        28.86488         0.37281
C         48.99118        29.54417         0.12928
C         50.21542        31.79577         0.05646
C         48.88806        31.06627         0.22574
C         50.25284        33.12468        -0.37689
C         49.00512        33.81698        -0.71192
C         50.31830        35.95576        -1.51724
C         49.05808        35.13907        -1.21228
C         50.21829        37.50462        -1.25407
C         49.09743        38.32945        -1.39459
C         50.22921        40.42521        -0.62288
C         49.05996        39.74012        -1.00440
C         50.24265        41.80786        -0.29418
C         49.06695        42.57631        -0.47813
C         50.18548        44.68451         0.10580
C         48.96481        44.00418        -0.10134
C         50.18302        46.03437         0.52902
C         48.94989        46.71828         0.78792
C         50.18176        48.85086         1.07266
C         48.98683        48.13015         1.07197
C         50.22202        50.28741         1.21670
C         48.96083        51.08353         1.46661
C         50.25598        53.07574         0.65374
C         48.97620        52.42391         0.76611
C         51.32574        20.98569        -0.59140
C         52.68218        22.94428         0.22363
C         51.37466        22.49910        -0.47612
C         52.69124        24.45338         0.51234
C         51.42061        25.23535         0.50828
C         52.67830        27.39325         0.36991
C         51.44785        26.61113         0.50417
C         52.65464        28.77860         0.27764
C         51.44407        29.57402         0.73877
C         52.73107        31.73733        -0.07227
C         51.46419        31.07126         0.37925
C         52.72883        33.19111        -0.40418
C         51.47504        33.88348        -0.49713
C         52.69102        36.00257        -0.63933
C         51.51663        35.30350        -0.82631
C         52.79832        37.45154        -0.91792
C         51.51201        38.22431        -1.11465
C         52.69040        40.34272        -0.13314
C         51.50247        39.70150        -0.77617
C         52.68730        41.82712        -0.08355
C         51.50449        42.50358        -0.09144
C         52.74248        44.64378         0.28584
C         51.49350        44.00556        -0.28042
C         52.67496        46.03578         0.67045
C         51.44954        46.70804         0.76244
C         52.60864        48.80462         1.34307
C         51.44291        48.13348         1.02630
C         52.74282        50.28208         1.10101
C         51.41295        50.98905         1.16557
C         51.41199        52.41125         0.94945
C         55.05947        23.18274        -0.63978
C         53.89115        22.49140        -0.56326
C         55.18115        24.53598        -0.19674
C         53.97340        25.21893         0.30333
C         55.16427        27.36027         0.19494
C         53.94602        26.69002         0.22584
C         55.14242        28.85899         0.41362
C         53.90879        29.40269        -0.32366
C         55.24105        31.67831        -0.43453
C         53.93751        30.93477        -0.43380
C         55.26390        33.20938        -0.52184
C         53.92856        33.87400        -0.31837
C         55.18765        36.06923         0.01867
C         53.85964        35.33345         0.05119
C         55.23726        37.43473        -0.01008
C         54.05349        38.18209        -0.51649
C         55.23450        40.37279         0.14859
C         53.97656        39.60910        -0.07029
C         55.19773        41.73907         0.24279
C         54.00321        42.54741        -0.24542
C         55.24115        44.71849         0.33989
C         53.93347        43.96314         0.28548
C         55.12007        46.04500         1.03908
C         53.90928        46.67684         1.09777
C         55.06170        48.78024         2.08120
C         53.81309        48.03340         1.67978
C         54.94676        50.25171         2.26542
C         53.84196        50.92384         1.91674
C         57.64360        24.61040        -0.52847
C         56.39954        25.25786        -0.25463
C         57.63643        27.39159         0.02483
C         56.40030        26.66910         0.01811
C         57.65352        28.81473         0.19203
C         56.45738        29.56247         0.12676
C         57.69252        31.72090         0.09735
C         56.47923        30.96477        -0.02798
C         57.69547        33.10712         0.10339
C         56.40927        33.83114         0.23914
C         57.70321        36.03564         0.38624
C         56.40698        35.31689         0.37928
C         57.68981        37.46159         0.44866
C         56.45421        38.18097         0.29275
C         57.69887        40.28398         0.48978
C         56.45796        39.59085         0.35806
C         57.68225        41.76237         0.40988
C         56.39619        42.42512         0.86764
C         57.65755        44.61405         0.99317
C         56.43901        43.92041         0.77932
C         57.62536        46.01124         1.28144
C         56.33074        46.61408         1.75330
C         57.53144        48.83346         1.67367
C         56.34323        48.12326         1.80123
C         58.83265        25.30607        -0.48339
C         60.11398        27.40167        -0.16475
C         58.85793        26.69542        -0.20169
C         60.17838        28.72477         0.13093
C         58.95260        29.49660         0.37786
C         60.21266        31.80500         0.18584
C         58.97117        31.01975         0.37881
C         60.19519        33.12595        -0.04142
C         58.92068        33.90046        -0.25481
C         60.12300        36.05028         0.40194
C         58.91233        35.33209         0.27652
C         60.12917        37.41914         0.58958
C         58.92593        38.16675         0.55975
C         60.14946        40.36188         0.73275
C         58.92188        39.60641         0.57476
C         60.18875        41.71711         0.74559
C         58.97924        42.52144         0.51795
C         60.10650        44.72389         0.96077
C         58.93305        43.96001         0.88197
C         60.06158        46.10374         1.13001
C         58.81803        46.76909         1.30806
C         58.75693        48.18515         1.48590
O         28.75191        41.47940        -1.88761
O         39.35226        47.31351        -1.18602
O         38.75185        39.29646        -1.78223
O         42.38591        44.77081         2.64342
O         41.18644        53.21125         0.47374
O         38.68192        28.68825        -0.82743
O         42.38997        20.06386        -2.68620
O         30.81052        50.58987         0.65828
O         56.16191        34.39877         1.56144
O         54.22875        48.08177         3.11121
O         45.09356        37.83115         0.18411
O         47.05992        25.19819        -1.67902
O         37.05446        39.29487         1.45181
O         47.29799        48.31484         2.80111
O         40.88432        37.94407        -2.49568
O         46.39405        26.49587         1.71816
O         46.36005        29.89350        -1.72299
O         53.80732        37.86039        -1.91920
O         42.28489        35.40460        -2.13192
O         40.29973        28.23911         2.28020
O         28.88690        47.46738         0.45485
O         24.27548        34.96943         3.13214
O         27.53041        46.16350        -2.59931
O         54.57485        31.26070        -1.70943
O         39.77512        19.91433         0.92002
O         34.17419        25.65908         2.50932
O         43.66821        51.44602        -1.75062
O         27.52535        33.88178         3.12592
O         39.02442        43.28938        -1.23271
O         28.34323        29.22532         3.37921
O         58.30208        42.28757        -0.79043
O         36.45651        29.76332        -1.35693
O         32.72811        33.69455         1.85006
O         38.99746        25.76285         2.41173
O         24.86669        42.21115         0.92569
O         47.82917        36.66750        -2.59490
O         46.29722        43.68647         1.84022
O         38.40621        22.33112         1.84891
O         44.25456        54.75111         0.21041
O         43.14443        42.69250        -1.01229
O         44.55385        48.59232         3.03210
O         46.99156        42.67842        -1.62497
O         53.09688        39.70905         1.13266
O         53.53936        24.74394         1.67574
O         24.53262        39.62018        -1.57122
O         32.12209        30.54983         2.92450
O         41.52462        30.61191         1.86755
O         37.18229        36.61739        -2.22962
O         41.05131        39.14737         0.94558
O         43.64483        31.69576         1.35579
O         52.38373        31.70445         1.36596
O         58.97018        30.28329         1.64478
O         29.12521        25.44453         2.63423
O         27.73453        35.98763        -0.87096
O         51.69563        39.25696        -2.15360
O         45.68782        40.51366        -2.40306
O         37.35791        44.21345         1.84737
O         24.52860        26.84938         2.54868
O         34.77381        31.79761        -1.61000
O         31.73270        44.24218         1.57622
O         56.33776        42.12885         2.30913
H         55.52270        42.53184         2.67662
O         51.63610        44.18804        -1.74136
H         50.82422        43.83119        -2.16321
O         44.06174        42.83275         2.49065
H         43.92661        43.49392         3.20645
O         49.93135        27.34466         2.16722
H         50.56086        27.99854         2.56634
O         37.67692        24.84063        -0.71459
H         36.75942        24.66737        -1.01581
O         31.51808        39.48187        -1.84671
H         30.60935        39.29869        -2.17165
O         45.02843        35.85991        -2.95439
H         45.81641        36.12192        -3.47810
O         53.20749        50.38869        -0.29663
H         52.48025        50.07930        -0.87768
O         42.16231        49.36500         2.88744
H         42.97369        49.74553         3.30564
O         34.43726        28.28146        -0.86632
H         34.89071        28.78802        -1.58442
O         30.73032        48.75778        -2.48067
H         30.71360        47.83100        -2.80114
O         44.82591        50.96447         2.75367
H         45.43260        50.57814         3.42398
O         49.58029        24.63046         1.95441
H         49.61456        25.58472         2.23162
O         33.01693        24.23126        -1.53672
H         32.92814        23.58814        -2.27263
O         36.80715        34.83917         0.98179
H         36.52488        35.62253         1.50131
O         38.76530        34.69429        -2.84443
H         38.31051        35.45491        -3.27791
O         29.55025        43.80654        -2.50114
H         29.07681        43.05442        -2.93141
O         36.74119        24.74622         2.84308
H         35.95526        25.11676         3.30354
O         43.54089        53.52725        -3.13690
H         42.95766        52.84070        -3.52321
O         30.71892        28.52678         3.76694
H         30.93247        29.39368         4.17757
O         40.80191        25.31912        -1.10046
H         41.40554        25.79698        -1.70736
O         26.10537        37.69994        -1.70775
H         26.40919        36.78673        -1.91758
O         29.79575        41.88207         1.55249
H         30.23320        42.70248         1.87159
O         46.22743        52.19200        -1.65338
H         45.55175        52.01161        -2.34776
O         48.38616        31.35030        -2.09399
H         47.81229        30.65790        -2.50457
O         51.49199        29.52385         2.21060
H         52.19922        30.15684         2.48554
O         54.90753        29.09906         1.83124
H         55.67919        28.75938         2.33201
O         58.80958        34.06987        -1.71960
H         57.85456        34.15417        -1.94649
O         54.18857        42.70021        -1.70334
H         53.38824        43.18158        -2.03295
O         55.54650        45.03262        -1.07670
H         55.36374        44.20613        -1.59296
O         50.56556        35.83056        -2.93928
H         49.78479        36.20460        -3.40474
O         37.50355        48.76885         1.67035
H         38.17151        49.36415         2.08663
O         37.87019        53.33896        -3.54235
H         36.98993        52.90866        -3.59991
O         38.71234        52.83804         0.95512
H         39.34585        52.42731         1.59377
O         52.79574        22.24212         1.47993
H         53.30664        22.82841         2.08459
O         56.17434        46.15492         3.15197
H         55.42479        46.68603         3.52564
O         53.93426        28.86980        -1.66987
H         54.39910        29.52907        -2.23807
O         53.52227        35.33906         1.49171
H         54.28433        34.91133         1.95425
O         34.86101        29.76229         2.46135
H         34.18887        30.18019         3.05077
O         55.65468        33.53828        -1.90178
H         55.10079        32.97755        -2.49401
O         36.87491        47.95761        -1.86943
H         37.78666        47.59601        -2.01513
O         45.95475        53.17623         1.86211
H         45.24123        52.65265         2.30403
O         50.17190        22.26218         1.56539
H         49.79196        22.86573         2.24658
O         42.51312        33.98827         1.10832
H         42.89471        33.38568         1.79272
O         33.04347        33.63768        -1.70851
H         33.68972        33.76269        -2.43609
O         51.37753        23.06086        -1.80440
H         50.78104        23.85304        -1.83858
O         34.08902        43.54201         2.30514
H         33.16857        43.64633         2.64420
O         48.38623        31.35498         1.55309
H         49.02344        31.00239         2.21019
O         39.93736        50.58610         2.01054
H         40.69085        50.24332         2.56823
O         49.71227        25.27757        -1.63572
H         48.99428        25.48010        -2.28051
O         48.97593        51.38668         2.90251
H         48.27007        52.04770         3.07049
O         36.31919        33.76922        -2.44616
H         36.19797        32.87536        -2.83622
O         40.71584        46.66220         2.75581
H         40.88363        45.79267         3.19156
O         41.81310        17.68243         0.03328
H         40.99726        17.30152         0.42139
O         34.16777        37.89412         1.78074
H         33.37305        38.28185         2.20501
O         35.32303        40.25640        -1.68960
H         34.44765        40.52296        -2.04385
O         44.52582        35.60310         0.65842
H         43.76776        35.24339         1.18386
O         41.00724        24.16579         2.35603
H         40.46219        24.70635         2.97734
O         44.19477        46.22188         3.35381
H         43.53678        46.71636         3.88520
O         39.19337        42.62404         2.25834
H         38.33805        43.02201         2.56569
H         22.10162        27.15614         0.32084
H         22.11444        29.54815         0.85464
H         22.04665        31.13478         2.08630
H         22.09617        33.47827         2.93820
H         22.30864        36.51151         2.88645
H         22.10945        38.47444         1.36016
H         21.81645        39.85772        -0.04482
H         21.86589        42.24259        -0.31777
H         21.98255        44.14309        -0.74977
H         22.04554        46.55237        -1.29040
H         25.42922        23.75717         0.06347
H         23.31922        24.93178         0.16745
H         25.40575        49.86735        -1.73064
H         23.31013        48.60941        -1.71460
H         27.01649        22.93563        -0.36918
H         27.15746        50.80068        -1.83004
H         29.08889        21.82350        -0.82289
H         29.16818        52.01500        -1.24423
H         32.75707        19.77817        -1.73842
H         30.69160        20.93152        -1.28757
H         32.99844        54.06122        -1.26169
H         30.87776        53.01215        -0.68924
H         34.40285        18.79616        -1.95917
H         34.69741        54.90713        -1.61347
H         36.46956        17.55979        -2.22405
H         36.84300        55.87097        -2.23458
H         40.09417        15.35399        -2.94511
H         38.03478        16.47795        -2.28088
H         40.73307        57.44423        -3.57075
H         38.53833        56.29214        -3.36786
H         42.63308        15.38586        -3.13484
H         43.15681        57.51922        -3.13714
H         44.79659        16.43788        -2.60732
H         45.06978        56.71990        -1.82630
H         48.57490        18.45026        -1.67064
H         46.47786        17.34070        -2.20099
H         48.67204        54.98261        -0.14615
H         46.60208        55.98552        -0.89526
H         50.17753        19.21949        -0.79586
H         50.30903        54.12540         0.33559
H         52.26800        20.41940        -0.59155
H         52.37463        52.93518         0.87484
H         55.92286        22.70566        -1.12602
H         53.87221        21.46715        -0.96153
H         55.75659        50.76377         2.80810
H         53.76837        51.99936         2.13553
H         57.66275        23.53284        -0.73828
H         57.51540        49.93008         1.75942
H         59.78248        24.78411        -0.66810
H         61.03558        26.83109        -0.35146
H         61.15119        29.22881         0.21142
H         61.17464        31.28892         0.32188
H         61.15090        33.65317        -0.17328
H         61.08458        35.52331         0.34821
H         61.09545        37.92886         0.69508
H         61.08593        39.81495         0.90621
H         61.13647        42.22675         0.97048
H         61.08345        44.23597         0.83901
H         60.99250        46.68759         1.14687
H         59.68681        48.76946         1.45545
