         324
 CSIRO Nanostructure Databank - Neutral Graphene Oxide Data Set
C          1.19017         3.54293        -1.44190
C         -0.01563         4.22348        -1.38305
C          1.13094         6.29715        -0.77539
C         -0.04838         5.58540        -1.05167
C          1.11581         7.71751        -0.45928
C         -0.08871         8.42678        -0.27897
C          1.09809        10.54091         0.00923
C         -0.09744         9.79090        -0.02188
C          1.09305        11.97519         0.23235
C         -0.09509        12.69861         0.47587
C          1.11164        14.82586         0.57717
C         -0.08490        14.07571         0.64623
C          1.12053        16.27539         0.68371
C         -0.08876        17.01165         0.78456
C          1.11300        19.13535         0.73829
C         -0.09194        18.39148         0.79694
C          1.10799        20.58096         0.67640
C         -0.08335        21.33322         0.79554
C          1.08122        23.47372         0.62489
C         -0.06791        22.74232         0.85734
C          1.12917        24.97157         0.87487
C         -0.12965        25.75244         0.56478
C          1.11216        27.86868         0.59200
C         -0.11527        27.11485         0.53895
C          1.19157        29.24066         0.86571
C          3.64614         3.53321        -1.20526
C          2.40395         4.21949        -1.15891
C          3.61013         6.28576        -0.53431
C          2.38133         5.60835        -0.82597
C          3.59855         7.72721        -0.39233
C          2.34822         8.42913        -0.36132
C          3.56159        10.57890        -0.24348
C          2.33214         9.84960        -0.19267
C          3.53943        12.00385        -0.05273
C          2.32327        12.69862         0.19557
C          3.56135        14.85747         0.29176
C          2.33316        14.12689         0.36063
C          3.58278        16.27567         0.47959
C          2.34560        16.99033         0.65239
C          3.58012        19.15621         0.76784
C          2.35115        18.42793         0.71149
C          3.56745        20.56456         0.68422
C          2.34651        21.26910         0.52474
C          3.57833        23.44064        -0.09864
C          2.30423        22.72960         0.25322
C          3.67991        24.91060         0.36034
C          2.34353        25.63879         0.23960
C          3.62608        27.86767         0.39533
C          2.34923        27.15420         0.25320
C          3.66017        29.27030         0.68491
C          2.41160        29.92861         0.89132
C          6.06178         3.38415        -0.75282
C          4.83518         4.16936        -0.86541
C          6.05830         6.21767        -0.02411
C          4.81555         5.54788        -0.46888
C          6.09360         7.74029        -0.16451
C          4.81089         8.46072        -0.37725
C          6.05825        10.64060        -0.46292
C          4.78872         9.87345        -0.39874
C          5.90174        12.10956        -0.68306
C          4.74361        12.75694        -0.19833
C          6.01372        14.88725        -0.07502
C          4.77409        14.17488        -0.00506
C          6.04274        16.29187         0.26604
C          4.81927        16.96437         0.50238
C          6.19973        19.11120         0.81646
C          4.85293        18.39563         0.86625
C          6.19794        20.60548         0.72566
C          4.84626        21.32822         0.71271
C          5.99497        23.07765        -0.53329
C          4.83630        22.62772         0.02767
C          6.01295        25.25621        -0.68782
C          4.80786        25.79526        -0.16011
C          6.10745        27.81021         0.48249
C          4.81825        27.15123         0.22082
C          6.14657        29.28370         0.57290
C          4.90565        29.95729         0.70936
C          8.38935         3.67325         0.40353
C          7.24294         3.99876        -0.52126
C          8.53690         6.19300        -0.69523
C          7.35207         5.43871        -0.12382
C          8.56279         7.67552        -0.62806
C          7.37158         8.39932        -0.50999
C          8.67812        10.48928        -0.98572
C          7.38234         9.87759        -0.58591
C          8.83217        11.83388        -1.35699
C          6.93252        12.94646        -1.12692
C          8.49966        14.88960        -0.69812
C          7.14272        14.25056        -0.65434
C          8.52949        16.13836         0.21372
C          7.29187        16.97504         0.24006
C          8.66643        19.04310         0.23347
C          7.41976        18.36906         0.39554
C          8.62399        20.48315        -0.07729
C          7.39350        21.26401         0.16069
C          8.52947        23.36307        -0.69647
C          7.32149        22.55707        -0.30980
C          8.48674        24.90388        -0.78610
C          7.28713        25.72411        -0.45415
C          8.62105        27.81741         0.06941
C          7.39135        27.03945         0.21152
C          8.63015        29.19917         0.33509
C          7.39840        29.91185         0.55747
C         10.98501         3.40354         0.39852
C          9.75410         3.92521        -0.29781
C         11.07102         6.16747        -0.37792
C          9.82973         5.41830        -0.63842
C         11.06763         7.57889        -0.52625
C          9.83730         8.32018        -0.69281
C         11.09054        10.47687        -0.74188
C          9.87213         9.75373        -0.77948
C         11.10594        11.88668        -0.68781
C          9.94590        12.62602        -1.01556
C         11.03220        14.76624        -0.20342
C          9.84486        14.12055        -0.87403
C         10.87988        16.00617         0.34722
C          9.80528        16.93571         0.12071
C         11.22949        19.11601         0.14511
C          9.92891        18.33382         0.18544
C         11.17642        20.49521        -0.12095
C          9.89887        21.22266        -0.36722
C         11.15339        23.46074        -0.74677
C          9.87734        22.75890        -0.24336
C         11.10665        24.95272        -0.91358
C          9.80088        25.67657        -0.76545
C         11.15595        27.80325        -0.07858
C          9.85657        27.04687        -0.13057
C         11.09936        29.27907         0.04126
C          9.87472        29.91215         0.27325
C         13.41353         3.40736         0.78410
C         12.20036         4.06262         0.37499
C         13.46162         6.19163         0.11333
C         12.24706         5.48666         0.01046
C         13.50804         7.59393        -0.11506
C         12.30874         8.26874        -0.44199
C         13.64593        10.42969        -0.61463
C         12.34259         9.70173        -0.75426
C         13.62293        11.87311        -0.35728
C         12.33314        12.56704        -0.21527
C         13.68988        14.72537         0.28687
C         12.29617        14.02050         0.11266
C         13.75094        16.25196         0.14257
C         12.77215        17.09499         0.66148
C         13.74679        19.31011         0.27864
C         12.57904        18.52321         0.38880
C         13.71538        20.61421        -0.41119
C         12.37153        21.29355        -0.52198
C         13.66139        23.56613        -0.42218
C         12.34310        22.79503        -0.67172
C         13.71220        25.01967        -0.85642
C         12.39912        25.74406        -0.88133
C         13.59348        27.88524        -0.46249
C         12.40792        27.17801        -0.54964
C         13.55558        29.33057        -0.25111
C         12.31397        29.98923        -0.07871
C         15.88029         3.40589         1.11570
C         14.67186         4.03105         0.72832
C         16.00296         6.20084         0.48911
C         14.71968         5.43633         0.27741
C         15.91493         7.68168         0.77412
C         14.75157         8.33129         0.06401
C         16.07367        10.41896        -0.06017
C         14.82872         9.68307        -0.16210
C         16.06924        11.81381        -0.32237
C         14.82879        12.55347        -0.33182
C         15.97903        14.50207        -1.06208
C         14.82005        13.99352        -0.48841
C         16.14941        16.71705        -0.65134
C         15.07700        16.82139         0.19338
C         16.26366        19.43340         0.30363
C         15.05717        18.85046         0.66694
C         16.23187        20.87172         0.06700
C         14.99531        21.41057        -0.56932
C         16.26445        23.67833        -0.65497
C         14.96782        22.88119        -0.78296
C         16.19321        25.14308        -0.43460
C         14.94598        25.79763        -0.55863
C         16.08320        27.95419        -0.32789
C         14.88110        27.20775        -0.48540
C         16.02343        29.39874        -0.30241
C         14.75902        30.04915        -0.25437
C         18.34757         3.45612         1.65174
C         17.10451         4.12332         1.28675
C         18.30867         6.32334         1.43650
C         17.13936         5.50840         1.09029
C         18.40565         7.69508         0.86729
C         17.25541         8.36080         0.54869
C         18.54271        10.46688         0.12766
C         17.29283         9.75430         0.15952
C         18.54692        11.86252        -0.19660
C         17.29583        12.49948        -0.45532
C         18.48093        14.51033        -1.12221
C         17.25424        13.83270        -0.95848
C         18.58234        16.80626        -0.96956
C         17.40596        17.39725        -0.48656
C         18.73682        19.39011         0.04717
C         17.49631        18.71626         0.08814
C         18.79639        20.83775         0.53602
C         17.50440        21.60406         0.19284
C         18.76801        23.73685         0.05418
C         17.56573        22.98831        -0.35204
C         18.63706        25.18656         0.19820
C         17.36930        25.87041        -0.16376
C         18.55980        28.06540        -0.13901
C         17.33578        27.29410        -0.17754
C         18.48111        29.48796        -0.26927
C         17.21581        30.13123        -0.29710
C         19.51471         4.12881         1.83322
C         20.84502         6.36097         1.71139
C         19.57044         5.60364         1.84802
C         20.90656         7.60092         1.19859
C         19.75758         8.26014         0.46444
C         20.94387        10.54812         0.36699
C         19.76602         9.78934         0.39418
C         20.94815        11.92216         0.08008
C         19.76643        12.61976        -0.24202
C         20.85931        14.91814        -0.59382
C         19.72423        14.03185        -0.64570
C         20.93976        16.31470        -0.62528
C         19.87097        17.27399        -0.63949
C         21.14353        19.44058        -0.31534
C         19.94614        18.68849        -0.26258
C         21.16169        20.84984        -0.20427
C         20.02744        21.60107         0.08656
C         21.19563        23.86331         0.12948
C         19.98657        23.06069         0.14596
C         21.17669        25.22335         0.07909
C         19.93964        26.00024         0.25138
C         20.99564        28.23602        -0.17498
C         19.84456        27.45158        -0.06034
C         20.90926        29.63090        -0.32802
C         19.67458        30.25370        -0.35260
O          9.22685        14.90775        -1.94865
O         18.48101        15.71069        -1.83686
O         16.55828        21.60956         1.33285
O          5.65385        21.25155         1.92529
O         15.05154        21.98276        -1.90772
O          6.91651        10.43718         0.73138
O          5.65483        18.63343         2.08533
O         17.18862        23.26672        -1.73411
O          9.13212        20.70949        -1.48468
O         16.01731        15.76817        -1.67517
O          8.44091        24.03485        -1.96007
O          6.82494        27.11723         1.57540
O         19.20065        25.67067         1.46951
O          7.80458        12.42823        -2.07680
O         13.16191        10.03301        -1.95623
O         12.98722        20.59817        -1.67066
O         10.39722        25.52680        -2.08175
O         10.66805        27.05429         1.11720
O         12.10237        13.04559         1.20689
O          2.16978        26.32361        -1.00019
O          9.15568         5.68802        -1.92548
O         15.64881         5.73171        -0.84215
O         11.75605        16.43876         1.33803
O          7.97271         4.88359         1.17161
O         18.70143         6.22509         2.86109
O          5.87331        24.10780        -1.46194
O         15.20805        17.63771         1.34505
O          2.71385        23.10718        -1.19506
O          6.01823         7.05493         1.15557
O         13.13377        25.39073        -2.12564
O         15.60848         7.76018         2.20085
H         15.71141         8.69220         2.48596
O         18.89532        20.78057         1.98558
H         17.97700        20.87998         2.33489
O         13.71973        23.60594         1.04354
H         13.06558        24.25770         1.37572
O          1.34996        25.11729         2.32112
H          0.64565        24.61905         2.78687
O         19.93936         7.82845        -0.93298
H         19.23762         8.25426        -1.47056
O          8.57086        15.50832         1.55536
H          8.50986        16.22095         2.22715
O         14.09828        14.50459         1.65621
H         13.50980        13.79651         2.02026
O          3.99389        24.75376         1.77101
H          4.12546        25.63800         2.17417
O          9.89649        23.04938         1.18881
H         10.65380        22.58292         1.60204
O          9.69894         3.17193        -1.54005
H          9.41074         3.80501        -2.23960
H          1.21745         2.47554        -1.70314
H         -0.95586         3.69767        -1.59979
H         -1.02153         6.09334        -1.02248
H         -1.05030         7.89818        -0.32232
H         -1.06480        10.28650         0.13399
H         -1.05901        12.17530         0.53066
H         -1.04233        14.58018         0.83203
H         -1.05231        16.48692         0.81937
H         -1.05774        18.91212         0.83616
H         -1.04501        20.82494         0.94096
H         -1.00870        23.25886         1.09977
H         -1.09173        25.22245         0.50663
H         -1.06481        27.66873         0.47308
H          0.26494        29.79511         1.07633
H          3.65940         2.46736        -1.47649
H          2.41121        31.00796         1.10115
H          5.98553         2.28710        -0.77990
H          4.90389        31.04835         0.85044
H          8.33940         2.73742         1.00527
H          7.45075        31.00368         0.68214
H         10.95848         2.34779         0.71168
H          9.85894        31.00522         0.39780
H         13.34853         2.36120         1.12051
H         12.30440        31.08481         0.02209
H         15.86119         2.33646         1.37590
H         14.73108        31.14523        -0.16344
H         18.34461         2.35643         1.69156
H         17.17637        31.23036        -0.32214
H         20.45219         3.57154         1.98144
H         21.75307         5.90132         2.13406
H         21.88129         8.11157         1.17006
H         21.91001        10.06002         0.56027
H         21.91392        12.44688         0.06932
H         21.82501        14.42343        -0.39845
H         21.95008        16.72105        -0.45291
H         22.08386        18.92927        -0.56725
H         22.11226        21.36016        -0.42103
H         22.16239        23.34529         0.05439
H         22.12072        25.76231        -0.08761
H         21.98817        27.76880        -0.11666
H         21.83065        30.22455        -0.40312
H         19.60320        31.34641        -0.44922
