         618
 CSIRO Nanostructure Databank - Neutral Graphene Oxide Data Set
C         23.07742        69.91981        -0.44893
C         23.05242        71.30091        -0.42723
C         21.88541        72.05450        -0.73435
C         23.14176        74.15011        -0.73651
C         21.93545        73.44211        -0.85658
C         25.36638        65.52962         0.24221
C         25.44269        67.03830         0.13308
C         24.26983        67.76576        -0.09545
C         25.51704        69.86057        -0.02714
C         24.28665        69.17746        -0.17653
C         25.57387        71.33826        -0.32590
C         24.27958        72.04632         0.06104
C         25.57638        74.12619        -0.37793
C         24.34133        73.48961        -0.39280
C         27.90168        61.37351        -0.54518
C         27.94719        62.77921        -0.50093
C         26.70475        63.54548        -0.52606
C         27.93153        65.51115         0.27021
C         26.66532        64.82983        -0.09092
C         27.92975        66.99035         0.51138
C         26.66338        67.72140         0.30960
C         27.94267        69.84446         0.43431
C         26.70325        69.13712         0.20643
C         27.90950        71.27149         0.59336
C         26.77887        72.06105         0.25262
C         27.97536        74.28674         0.00345
C         26.79745        73.48610         0.03730
C         30.27012        56.89684        -0.32806
C         30.22645        58.35255        -0.45341
C         28.92434        59.10211        -0.20226
C         30.27091        61.27931        -0.06014
C         29.05417        60.61517        -0.31681
C         30.35358        62.69576        -0.03963
C         29.17861        63.43242        -0.26439
C         30.46713        65.58672         0.19829
C         29.20358        64.93413        -0.31594
C         30.44178        67.02412         0.37932
C         29.21676        67.71874         0.43834
C         30.39990        69.83831         0.81243
C         29.17902        69.14307         0.57432
C         30.36810        71.25283         1.07256
C         29.09494        71.85862         1.11813
C         30.50756        74.18993         0.34630
C         29.17572        73.91182         0.64601
C         32.74675        52.64787        -0.57192
C         32.68192        54.04515        -0.46593
C         31.49754        54.77112        -0.27061
C         32.73373        56.94269        -0.14634
C         31.47914        56.20952        -0.27413
C         32.77038        58.31034        -0.02380
C         31.53484        59.08518        -0.25434
C         32.74497        61.17040         0.59670
C         31.46202        60.47503         0.27295
C         32.74980        62.65121         0.53109
C         31.62108        63.38593         0.24619
C         32.93177        65.57126         0.34048
C         31.65007        64.86660         0.28878
C         32.92735        67.04565         0.39401
C         31.68737        67.73657         0.51611
C         32.82834        69.87056         1.13641
C         31.65262        69.15122         0.80439
C         32.79094        71.29211         1.68554
C         31.55419        72.03307         1.22545
C         32.88891        74.01795         0.74792
C         31.61398        73.41544         0.85542
C         35.27132        48.45126        -0.20863
C         35.20690        49.80127        -0.65180
C         34.01926        50.52005        -0.64156
C         35.17677        52.65735        -1.00365
C         33.97748        51.94908        -0.79999
C         35.20437        54.11823        -0.94639
C         33.92519        54.83498        -0.65752
C         35.26632        56.92141        -0.19131
C         33.99630        56.14884         0.08308
C         35.28423        58.30307         0.05824
C         34.01788        59.02918         0.23494
C         35.26248        61.10987         0.72830
C         34.00426        60.39034         0.46903
C         35.28516        62.60408         0.48164
C         34.01656        63.34961         0.93861
C         35.41675        65.22022         0.16013
C         34.07881        64.76343         0.40501
C         35.41518        67.35897         0.30464
C         34.10803        67.84445         0.57639
C         35.27070        69.84753         1.46939
C         34.06178        69.19650         1.06348
C         35.30492        71.25097         1.70710
C         34.11319        72.03213         1.52095
C         35.29254        74.16109         0.75002
C         34.11919        73.39842         1.08933
C         36.99227        43.89294         0.80020
C         37.09562        45.26509         0.38740
C         36.22036        46.34440         0.36121
C         37.73855        48.37576        -0.39969
C         36.44599        47.70024        -0.11154
C         37.74458        49.77251        -0.83389
C         36.45795        50.43264        -1.09965
C         37.71478        52.69882        -1.11037
C         36.44396        51.97057        -1.25299
C         37.70409        54.12911        -0.95266
C         36.48957        54.82096        -0.75857
C         37.70724        56.94210        -0.59442
C         36.47438        56.22051        -0.49895
C         37.71723        58.35571        -0.36337
C         36.52939        59.00584         0.01931
C         37.74545        61.25813         0.11774
C         36.57401        60.41133         0.46992
C         37.78754        62.60874         0.37796
C         36.57511        63.23863         1.06763
C         37.80235        65.48201         1.09377
C         36.55015        64.71271         0.74716
C         37.80156        67.00889         0.95107
C         36.57110        67.76866         0.95677
C         37.88348        69.82750         1.65412
C         36.50513        69.07415         1.60635
C         37.83730        71.28846         1.61844
C         36.58284        71.85852         1.93773
C         37.82972        74.22611         0.76559
C         36.56296        73.89915         1.26823
C         40.19715        40.16685         1.12792
C         40.08051        41.55398         1.30582
C         38.76444        42.03525         1.01755
C         40.27766        44.60845         1.43943
C         38.24908        43.32386         1.18480
C         40.27500        45.99172         1.00654
C         39.16227        46.44186         0.34647
C         40.25433        48.44419        -0.42708
C         38.97194        47.79387        -0.10872
C         40.22249        49.87217        -0.97139
C         38.91311        50.53562        -1.00312
C         40.17566        52.72168        -1.14826
C         38.92205        51.98513        -1.11032
C         40.18102        54.13992        -1.20580
C         38.93813        54.85861        -1.03625
C         40.11612        57.05405        -1.22769
C         38.90614        56.26451        -0.92670
C         40.14412        58.49429        -0.89142
C         38.94238        59.10546        -0.54030
C         40.14035        61.36428        -0.77276
C         38.85878        60.57396        -0.55615
C         40.12448        62.78419        -0.38273
C         38.97379        63.41436         0.08063
C         40.18639        65.54791         0.45968
C         39.02170        64.82951         0.46389
C         40.28791        66.86792         1.23883
C         39.00990        67.66895         1.11942
C         40.26099        69.82896         1.03453
C         39.07844        69.10579         1.21879
C         40.24539        71.28707         1.06045
C         39.02009        72.02452         1.29643
C         40.24269        74.10851         0.80045
C         39.01453        73.45484         1.01880
C         42.68329        35.87713         1.13759
C         42.61889        37.26417         1.17181
C         41.39110        38.00448         1.15789
C         42.63662        40.10231         1.56789
C         41.37161        39.38986         1.28624
C         42.60926        41.58005         1.83043
C         41.25802        42.35884         1.95824
C         42.66723        44.55255         1.32031
C         41.40003        43.82407         1.50919
C         42.70961        45.89442         1.00896
C         41.50697        46.81173         1.15182
C         42.67405        48.65992        -0.05265
C         41.50660        47.97412         0.17857
C         42.68434        49.97995        -0.64835
C         41.46826        50.63957        -0.89765
C         42.67230        52.74269        -1.24362
C         41.43585        52.04176        -1.10342
C         42.65322        54.17070        -1.35991
C         41.42563        54.84515        -1.31878
C         42.67764        57.07205        -1.29391
C         41.41407        56.31867        -1.45626
C         42.65172        58.47716        -1.09090
C         41.39281        59.21553        -0.94977
C         42.63713        61.36266        -0.72779
C         41.41655        60.61946        -0.81500
C         42.65539        62.76032        -0.66390
C         41.37573        63.51881        -0.59364
C         42.71460        65.53858         0.20146
C         41.38895        64.97263        -0.15636
C         42.77578        66.95225         0.72949
C         41.51090        67.69134         0.88730
C         42.74702        69.79545         0.64042
C         41.49912        69.07464         0.82500
C         42.67999        71.26649         0.47355
C         41.43653        71.98870         0.77205
C         42.69957        74.15177         0.72182
C         41.47673        73.42315         0.76737
C         45.13224        33.08342         1.53839
C         43.92785        33.78011         1.36741
C         45.18320        35.87850         1.01779
C         43.93160        35.17064         1.16883
C         45.10163        37.28725         0.84243
C         43.86860        38.00559         1.10288
C         45.09534        40.15651         0.93355
C         43.87801        39.38108         1.20701
C         45.10877        41.62651         1.13790
C         43.91560        42.35041         1.70038
C         45.28846        44.57070         1.32061
C         43.95317        43.84020         1.56345
C         45.15816        45.75574         0.34289
C         43.98643        46.60984         0.77314
C         45.19250        48.65949        -0.21550
C         43.96282        48.04515         0.33133
C         45.16952        49.94037        -0.71802
C         43.92301        50.66864        -0.87553
C         45.14643        52.70399        -1.77704
C         43.90050        52.01855        -1.25876
C         45.10540        54.20863        -1.60128
C         43.91657        54.90071        -1.48244
C         45.10351        57.10355        -1.47968
C         43.89914        56.36505        -1.41449
C         45.07878        58.50192        -1.30779
C         43.88076        59.18124        -1.03253
C         45.15782        61.39262        -1.01470
C         43.93777        60.61315        -0.54871
C         45.11045        62.83894        -0.93535
C         43.89761        63.48496        -0.68033
C         45.20115        65.51880         0.02381
C         43.89706        65.00534        -0.59330
C         45.17674        67.04098         0.08425
C         44.03047        67.69158         0.44726
C         45.21783        69.87355         0.42483
C         43.96351        69.14406         0.48912
C         45.21159        71.31899         0.86401
C         43.96286        72.05021         0.42414
C         45.17762        74.21394         0.61946
C         43.96237        73.52621         0.62906
C         46.33893        33.76288         1.53516
C         47.70932        35.75786         1.44721
C         46.42768        35.15961         1.25606
C         48.05703        37.02832         0.94475
C         46.23163        38.06983         0.48918
C         47.63811        40.10063         0.80715
C         46.37079        39.43722         0.74562
C         47.65097        41.53161         0.83817
C         46.42489        42.31387         1.01446
C         47.62912        44.33200         0.26717
C         46.43436        43.67512         0.91160
C         47.64847        45.83303         0.37004
C         46.44959        46.53902         0.28987
C         47.64811        48.65182        -0.07778
C         46.43978        47.94549         0.00071
C         47.67568        50.00952        -0.48848
C         46.45767        50.56355        -1.19709
C         47.60596        52.77324        -1.22797
C         46.43322        52.07629        -1.26159
C         47.69644        54.15122        -1.85732
C         46.37139        54.91934        -1.88420
C         47.65744        57.10819        -1.51248
C         46.38102        56.42051        -1.79017
C         47.65858        58.56663        -1.63379
C         46.31267        59.27816        -1.55770
C         47.59124        61.42436        -1.65382
C         46.32160        60.72558        -1.31046
C         47.56742        62.92068        -1.58912
C         46.34205        63.61154        -1.09915
C         47.66629        65.64318        -0.52540
C         46.38743        64.92711        -0.71143
C         47.67016        67.09071        -0.16920
C         46.37207        67.83356        -0.39895
C         47.69004        69.94752         0.25207
C         46.40213        69.25451         0.11583
C         47.71583        71.30436         0.50102
C         46.43864        72.03448         0.35531
C         47.76243        74.18874         0.23473
C         46.43641        73.52980         0.27823
C         48.98855        37.98228         1.35859
C         50.08497        40.13139         1.14911
C         48.89701        39.38417         1.03030
C         50.13201        41.53513         0.97524
C         48.88432        42.24195         0.82313
C         50.11704        44.36908         0.68045
C         48.91442        43.65295         0.65256
C         50.09683        45.79325         0.49246
C         48.90153        46.50254         0.35753
C         50.13629        48.66747        -0.02775
C         48.89367        48.00987         0.48212
C         50.13401        50.04087        -0.26993
C         48.86766        50.74038        -0.47177
C         50.06015        52.85225        -0.87709
C         48.87210        52.13185        -0.86555
C         50.08267        54.28157        -1.10855
C         48.88340        54.96647        -1.36988
C         50.08850        57.11608        -1.09747
C         48.86558        56.39830        -1.33182
C         50.04705        58.58806        -0.75026
C         48.87764        59.34095        -1.32757
C         50.13827        61.46389        -1.26648
C         48.88680        60.70533        -1.42214
C         50.13159        62.84830        -1.38912
C         48.88784        63.63023        -1.51801
C         50.19896        65.73215        -0.71100
C         48.92366        65.06308        -1.06736
C         50.17167        67.11865        -0.33394
C         48.94972        67.83582        -0.19101
C         50.16575        69.89237         0.36399
C         48.93378        69.20109         0.12753
C         50.17092        71.24482         0.80355
C         48.91679        72.07364         0.99198
C         50.19159        74.24468         0.15801
C         48.95664        73.53034         0.42666
C         51.34595        42.25298         0.96136
C         52.60760        44.35031         0.71175
C         51.38437        43.66623         0.82109
C         52.70679        45.79807         0.61265
C         51.35149        46.56842         0.53462
C         52.63569        48.62269        -0.16124
C         51.35988        47.84389        -0.27792
C         52.60625        50.02452        -0.36626
C         51.36276        50.73443        -0.43996
C         52.56347        52.89679        -0.88691
C         51.32912        52.23068        -0.34252
C         52.57343        54.27758        -1.01936
C         51.32012        55.00059        -1.02029
C         52.56868        57.15081        -0.90314
C         51.30823        56.42405        -1.02264
C         52.55425        58.57867        -0.79908
C         51.36284        59.31073        -0.91840
C         52.64827        61.41052        -1.05965
C         51.37819        60.72827        -1.04958
C         52.67501        62.87424        -1.28894
C         51.38346        63.63950        -1.39684
C         52.64821        65.74447        -0.76413
C         51.39015        65.06070        -0.95689
C         52.61873        67.09376        -0.28239
C         51.41142        67.78864        -0.09028
C         52.61168        69.85089         0.60165
C         51.39920        69.17661         0.32222
C         52.64557        71.22784         0.90892
C         51.38422        71.80300         1.18074
C         52.75006        74.22244         0.35707
C         51.42675        73.91761         0.73026
C         53.87931        46.50474         0.12386
C         55.08540        48.64082        -0.24521
C         53.87513        47.91303        -0.07961
C         55.08573        50.03250        -0.50454
C         53.83151        50.71356        -0.58018
C         55.10327        52.86952        -1.16459
C         53.78092        52.10565        -1.03348
C         55.04173        54.33493        -1.15352
C         53.83184        55.01430        -1.11530
C         55.04410        57.18700        -0.97502
C         53.78730        56.45530        -0.99413
C         55.07717        58.55529        -0.74607
C         53.82075        59.30142        -0.41968
C         55.14659        61.39254        -1.02598
C         53.85690        60.74041        -0.86795
C         55.18711        62.87589        -0.91182
C         53.89848        63.62180        -0.87564
C         55.18443        65.85863        -0.95674
C         53.88096        65.08882        -0.90798
C         55.16026        67.07753        -0.06985
C         53.86576        67.64449         0.26259
C         55.12043        69.81194         0.86202
C         53.85264        69.09902         0.74668
C         55.10811        71.26191         0.93668
C         53.89013        71.98191         0.93499
C         55.15966        74.05851         0.60552
C         53.90509        73.42851         0.70572
C         56.30871        50.77742        -0.55820
C         57.42318        52.95984        -0.28976
C         56.33174        52.18597        -0.68166
C         57.28808        54.44109        -0.08568
C         56.38893        55.01008        -1.27125
C         57.45695        57.24421        -1.37913
C         56.27090        56.49593        -1.24686
C         57.59376        58.56091        -0.97883
C         56.36952        59.28771        -0.51111
C         57.65839        61.37239        -1.40182
C         56.34011        60.71239        -1.01818
C         57.69133        62.83244        -0.99236
C         56.44781        63.62725        -1.28968
C         57.60162        65.64522        -0.35042
C         56.43679        65.03276        -0.74454
C         57.59683        67.02894         0.14413
C         56.31617        67.70061         0.37584
C         57.52784        69.74182         1.40436
C         56.29421        69.06770         0.85217
C         57.58811        71.22644         1.05269
C         56.37912        71.93961         0.92647
C         57.62046        74.05905         0.79330
C         56.39057        73.37386         0.77751
C         58.61504        55.12650         0.20374
C         60.12948        57.13517        -0.02692
C         59.15129        56.18594        -0.47992
C         60.09178        58.50711        -0.36899
C         58.87754        59.23086        -0.82722
C         60.19894        61.34464        -1.09331
C         58.89216        60.60517        -0.95589
C         60.14288        62.80774        -0.69101
C         58.86944        63.49015        -0.66710
C         60.06992        65.58701        -0.21902
C         58.86241        64.90954        -0.37554
C         60.03704        67.05458        -0.08401
C         58.77758        67.67946         0.38878
C         60.10197        69.77161         1.07274
C         58.82388        68.99328         1.08120
C         60.07849        71.25321         1.18723
C         58.82684        71.92639         1.07807
C         60.07832        74.05183         0.96614
C         58.84030        73.36566         0.95368
C         61.23171        59.27935        -0.06227
C         62.52411        61.35319        -0.22197
C         61.35790        60.65089        -0.41001
C         62.64054        62.76559        -0.74124
C         61.32904        63.50122        -0.53309
C         62.56048        65.62224        -0.11662
C         61.33248        64.91938        -0.29483
C         62.61371        67.03309         0.01919
C         61.33983        67.79552        -0.02047
C         62.51526        69.81856         0.70166
C         61.32584        69.15450         0.53363
C         62.52025        71.17243         1.21117
C         61.30320        71.95130         1.26955
C         62.50469        74.21287         0.99702
C         61.31914        73.41067         1.15423
C         63.82383        63.50553        -0.19016
C         64.99500        65.58117         0.37269
C         63.80483        64.87326         0.00720
C         65.07278        66.97848         0.43687
C         63.83299        67.73257         0.20173
C         64.90048        69.97795         0.35160
C         63.76437        69.15974         0.38304
C         64.98898        71.21041         1.04123
C         63.76405        71.70040         1.55951
C         65.07617        74.19671         1.00078
C         63.79020        73.82582         1.42080
C         66.30771        67.54876         0.92122
C         67.55771        69.74182         1.42371
C         66.69427        68.88795         0.72493
C         67.47388        71.18712         1.33443
C         66.23535        71.92246         1.19911
C         67.49760        74.02531         1.28824
C         66.24343        73.36914         1.21910
C         68.66078        71.92085         1.56492
C         68.67526        73.31388         1.49964
O         31.87352        60.60662         1.67354
O         27.95304        65.99851         1.63426
O         43.34433        71.64698        -0.81611
O         37.25290        69.24159         2.83403
O         52.21584        63.34952        -2.59032
O         46.26587        72.65024        -0.94989
O         41.26296        64.63059        -1.57421
O         28.98306        73.06911         1.78003
O         39.20747        61.11209        -1.88087
O         52.06027        46.55251         1.75164
O         51.34266        73.03580         1.83977
O         46.94124        58.98902        -2.85243
O         47.27597        37.42498        -0.16616
O         44.77835        41.11213        -0.21176
O         53.72359        67.98302         1.68684
O         66.01238        69.52599        -0.34636
O         59.69312        68.97009         2.28141
O         54.58238        63.20732         0.38405
O         38.35231        45.44975        -0.17513
O         34.40286        54.82093        -2.02155
O         36.57351        73.14207         2.46772
O         36.05025        60.60224         1.83863
O         40.61691        56.79597        -2.59653
O         36.38940        51.06491        -2.40851
O         42.73180        40.64190         2.96065
O         48.90217        64.73721        -2.49279
O         30.97408        58.91995        -1.59564
O         35.54147        66.35537        -0.65104
O         44.08700        43.17908         2.88414
O         58.60752        56.52865        -1.74104
O         42.89785        65.76910         1.60761
O         39.01692        44.24216         1.87583
O         46.31027        55.73600        -3.11569
O         44.20795        47.67522         1.76218
O         40.34767        48.72059        -1.86587
O         47.72909        66.08245         0.90138
O         47.44812        62.22384        -2.87453
O         60.58137        67.72122        -1.30051
O         54.48085        52.26235        -2.33022
O         63.79304        72.80349         2.40642
O         57.71101        61.34922        -2.88325
H         57.07142        62.03943        -3.19431
O         60.48290        61.31918        -2.54084
H         59.60949        61.40576        -3.00197
O         44.85127        45.25191        -0.97349
H         45.67177        44.82353        -1.32826
O         46.27985        67.91387        -1.85655
H         45.42640        68.33732        -2.08872
O         48.84827        48.27277         1.93425
H         48.00772        47.89660         2.27505
O         35.29962        62.76909        -0.95663
H         36.17114        62.48277        -1.30729
O         40.92521        42.40911         3.35794
H         41.35084        41.62806         3.78344
O         32.62330        71.13426         3.15099
H         32.59355        72.03316         3.54274
O         44.10967        60.48992         0.91470
H         44.13784        61.39837         1.28588
O         45.68304        45.17117         2.57937
H         45.41480        44.54374         3.29022
O         37.96330        65.32029         2.55031
H         37.65336        64.40365         2.78921
O         46.60541        50.12102        -2.59053
H         47.27248        50.69700        -3.02086
O         43.80861        65.54502        -1.92859
H         42.96586        65.21429        -2.32244
O         45.29519        64.98246         1.36468
H         46.12931        65.33938         1.75115
O         29.13587        65.31103        -1.73588
H         29.88978        64.88457        -2.19583
O         49.79862        58.61034         0.71496
H         50.56651        58.17342         1.14324
O         45.21018        71.36516         2.31379
H         46.07959        71.04230         2.63420
O         51.26623        47.36450        -1.68135
H         51.30235        48.15069        -2.26721
O         24.28895        65.01134        -0.53807
H         24.46946        65.20394        -1.48063
O         27.92352        58.61707        -1.10345
H         28.27836        58.69626        -2.01333
O         51.32427        52.52856         1.11294
H         51.28790        53.50463         1.20824
O         55.26307        66.36009        -2.34627
H         55.27548        65.56614        -2.92950
O         47.43515        44.07698        -1.18799
H         47.48419        43.10462        -1.32223
O         56.52429        59.42253         0.95148
H         55.60976        59.53045         1.32054
O         34.03263        55.78322         1.50134
H         34.03801        56.61168         2.02637
O         62.87159        62.66976        -2.18694
H         62.09564        62.18320        -2.56831
O         57.02787        54.55872        -2.48022
H         56.52480        54.89824        -3.24864
O         25.68537        71.45109        -1.78110
H         26.48698        70.96088        -2.05952
O         24.21418        72.05136         1.51263
H         23.38993        72.51123         1.77525
O         53.78303        59.39065         1.08793
H         53.17173        60.12442         1.31767
O         41.58054        47.38612         2.49115
H         42.52323        47.65668         2.62738
O         56.36623        63.75347        -2.77872
H         57.14789        64.27895        -3.05994
O         48.70923        72.24432         2.43114
H         49.52524        72.67962         2.77222
O         47.99289        53.83486        -3.26106
H         47.76145        54.64839        -3.77266
O         36.69256        62.98757         2.48453
H         35.78642        63.04559         2.87390
O         45.15604        52.49848        -3.22577
H         45.95694        52.95109        -3.57731
O         57.34218        69.71003         2.84932
H         58.23868        69.58643         3.24442
O         56.45178        54.66993         1.08804
H         56.91485        54.30571         1.87122
O         40.43625        66.50280         2.63774
H         39.58852        66.06291         2.90883
O         34.03454        63.39032         2.39876
H         33.14149        63.64540         2.71414
H         23.16365        75.22722        -0.95990
H         25.62629        75.19301        -0.64888
H         27.94691        75.21523        -0.58624
H         30.74122        75.01280        -0.34513
H         32.93280        75.04829         0.36399
H         35.17669        74.95527        -0.00251
H         37.92508        75.07904         0.07683
H         40.24026        75.19914         0.65864
H         42.64869        75.25001         0.76970
H         45.19023        75.30142         0.78821
H         47.78382        75.25788        -0.03209
H         50.15078        75.05003        -0.59189
H         52.93100        75.10887        -0.27098
H         55.19065        75.14257         0.41751
H         57.63193        75.15482         0.69529
H         60.06615        75.14491         0.83689
H         62.39040        75.16930         0.46335
H         65.22373        75.15856         0.48527
H         67.52534        75.12335         1.24185
H         22.16302        69.35883        -0.69754
H         20.94370        71.52287        -0.93745
H         21.02044        73.98977        -1.12340
H         25.12918        65.28216         1.31540
H         23.32219        67.22313        -0.22575
H         26.94340        60.85979        -0.70764
H         25.76691        63.01557        -0.75103
H         29.32116        56.34417        -0.26627
H         28.56504        58.86299         0.83568
H         31.82975        52.05658        -0.42974
H         30.53660        54.23677        -0.22360
H         34.32142        47.97141         0.07303
H         33.09067        50.00599        -0.35120
H         36.06600        43.30683         0.72180
H         35.19651        46.15096         0.71720
H         39.28913        39.62061         0.82409
H         38.08592        41.30098         0.55362
H         41.75326        35.28952         1.17072
H         40.44521        37.46089         1.01406
H         45.11483        31.99903         1.71524
H         42.96883        33.24691         1.43411
H         47.27095        33.21140         1.72629
H         48.44427        35.19831         2.04648
H         49.82727        37.67192         2.00044
H         51.02547        39.59414         1.34295
H         52.29294        41.70223         1.06229
H         53.52877        43.76158         0.58247
H         54.80217        45.93518        -0.06132
H         56.04585        48.11237        -0.15381
H         57.24234        50.25618        -0.29707
H         58.38396        52.46783        -0.07217
H         59.03334        54.90551         1.20029
H         60.95272        56.79283         0.62049
H         62.09861        58.77789         0.39584
H         63.40526        60.85657         0.21379
H         64.77421        62.95834        -0.09016
H         65.90727        64.99195         0.55229
H         66.96511        66.88589         1.50509
H         68.34093        69.31573         2.06965
H         69.59950        71.37442         1.73450
H         69.62488        73.85437         1.61697
