         349
 CSIRO Nanostructure Databank - Neutral Graphene Oxide Data Set
C          1.25373         1.97999        -0.23344
C          1.21018         3.38096        -0.12093
C          2.46109         1.30263        -0.21102
C          2.37959         4.13833         0.01341
C          1.13687         6.32880         0.00042
C          1.12370         7.71206         0.05730
C          2.34642         5.60188         0.08939
C          2.32591         8.45854         0.14344
C          1.17476        10.65804        -0.05683
C          1.14427        12.05707         0.12300
C          2.31612         9.90792         0.19906
C          2.31755        12.78481         0.37394
C          1.04503        15.01149         0.37115
C          1.00133        16.25090        -0.12810
C          2.32553        14.27590         0.66916
C          2.20671        17.00524        -0.62411
C          2.31004        18.39281        -0.00128
C          3.67598         2.02019        -0.06872
C          3.63698         3.44583         0.04093
C          4.92650         1.34349         0.01475
C          4.85985         4.15173         0.21260
C          3.55144         6.33946         0.21742
C          3.55126         7.74597         0.21383
C          4.81394         5.60129         0.46306
C          4.83324         8.51118        -0.02725
C          3.53385        10.62088         0.75060
C          3.54489        12.10236         0.47008
C          4.82880         9.94802         0.40122
C          4.79028        12.81035         0.39524
C          3.54828        14.94739         0.07334
C          3.50129        16.24943        -0.40158
C          4.76641        14.21053         0.07750
C          4.73583        16.97805        -0.73029
C          3.46299        19.08489         0.00898
C          4.72022        18.51499        -0.52777
C          6.11669         2.04227         0.15349
C          6.09488         3.47701         0.22010
C          7.38221         1.35036         0.36767
C          7.34119         4.20243         0.26488
C          6.12777         6.34794         0.51627
C          6.12453         7.80761         0.30950
C          7.37477         5.58011         0.33210
C          7.30922         8.51682         0.27212
C          6.03240        10.66304         0.41595
C          6.01461        12.09844         0.48137
C          7.29907         9.95359         0.33411
C          7.29391        12.87450         0.68187
C          6.00052        14.85861        -0.39670
C          6.03319        16.31647        -0.59355
C          7.31388        14.17774        -0.09861
C          7.22502        17.03529        -0.59846
C          6.01498        19.15161        -0.29394
C          7.19975        18.48708        -0.47292
C          8.56891         2.00129         0.41149
C          8.64032         3.46167         0.02096
C          9.84887         1.30391         0.83150
C          9.81852         4.17216         0.71859
C          8.63058         6.30427         0.25272
C          8.59927         7.78234        -0.06620
C          9.83356         5.64976         0.38182
C          9.82156         8.46686         0.48964
C          8.52750        10.69686         0.37015
C          8.53849        12.07962         0.39237
C          9.80484         9.95026         0.58998
C          9.77547        12.84170        -0.02516
C          8.52720        15.01842        -0.06020
C          8.49670        16.34092        -0.40902
C          9.78216        14.31689         0.40404
C          9.77537        17.08931        -0.72687
C          8.47309        19.31978        -0.41771
C          9.77699        18.55330        -0.34929
C         11.11004         2.04701         0.46059
C         11.11502         3.45649         0.40733
C         12.29832         1.33645         0.27935
C         12.32684         4.15485         0.17388
C         11.10861         6.36086         0.30588
C         11.10971         7.74432         0.36484
C         12.34735         5.61833         0.12615
C         12.35791         8.51464         0.32830
C         11.10650        10.69900         0.59211
C         11.06686        12.17728         0.40142
C         12.35018         9.99580         0.19571
C         12.30970        12.86738         0.01670
C         11.04520        15.01595        -0.04218
C         11.03654        16.38300        -0.28465
C         12.27414        14.28580        -0.07077
C         12.27004        17.10628        -0.33859
C         10.95405        19.21953        -0.22166
C         12.25907        18.56607        -0.33133
C         13.52190         2.01390         0.06699
C         13.52642         3.43441         0.02033
C         14.75881         1.29113        -0.02064
C         14.86934         4.13133        -0.03001
C         13.52697         6.28581        -0.18377
C         13.58363         7.75980        -0.10196
C         14.78395         5.60014        -0.39595
C         14.67749         8.49561        -0.80755
C         13.47676        10.68593        -0.17522
C         13.49371        12.14529        -0.19934
C         14.64306        10.02202        -0.89934
C         14.71703        12.85302        -0.40868
C         13.49870        14.98570        -0.20339
C         13.47910        16.40891        -0.23899
C         14.71237        14.24307        -0.32810
C         14.75251        17.13618        -0.37265
C         13.43021        19.28918        -0.35369
C         14.74437        18.63921        -0.49977
C         15.95762         1.92275        -0.37176
C         15.84622         3.33466        -0.91982
C         17.18330         1.25388        -0.32307
C         17.19383         4.06693        -1.06997
C         15.94023         6.28661        -0.67991
C         15.97130         7.75426        -0.92228
C         17.19097         5.57059        -1.02837
C         17.24034         8.50560        -0.72703
C         15.99465        10.66686        -0.63461
C         15.99587        12.16039        -0.84799
C         17.20585         9.96030        -0.60286
C         17.26811        12.86135        -0.42456
C         15.98169        14.94815        -0.05240
C         15.97372        16.43408         0.13149
C         17.25168        14.22190        -0.23491
C         17.25474        17.23353         0.35469
C         16.03605        19.34372        -0.32062
C         17.22810        18.66323        -0.16073
C         18.43573         1.90136        -0.55610
C         18.46401         3.36838        -0.74221
C         19.61725         1.19241        -0.56013
C         19.61681         4.06118        -0.49988
C         18.46727         6.33940        -0.86127
C         18.41714         7.79679        -0.54966
C         19.70637         5.54527        -0.58280
C         19.66240         8.47626        -0.27682
C         18.46929        10.65629        -0.44757
C         18.51247        12.10794        -0.41944
C         19.68347         9.91080        -0.28239
C         19.72532        12.78789        -0.28736
C         18.46924        15.03421        -0.36446
C         18.49271        16.46707        -0.05887
C         19.80820        14.25572        -0.40171
C         19.69910        17.13886        -0.03196
C         18.49875        19.31028        -0.20279
C         19.71010        18.60863        -0.03910
C         20.87582         1.93777        -0.91980
C         20.85412         3.26141        -0.09917
C         22.17884         1.23005        -0.65485
C         22.16063         4.04771        -0.24960
C         20.81581         6.24281         0.18976
C         20.86653         7.74579        -0.08119
C         22.14681         5.52583        -0.07511
C         22.08317         8.43152         0.08437
C         20.93198        10.57624        -0.06591
C         20.99176        12.05051        -0.19071
C         22.11818         9.84990         0.12558
C         22.24997        12.80992         0.14725
C         20.99310        15.00753         0.05058
C         20.93181        16.39830         0.11873
C         22.21128        14.28752         0.36419
C         22.10308        17.17535         0.56010
C         20.94563        19.29163        -0.01337
C         22.16664        18.62063         0.24365
C         23.36091         1.92814        -0.68588
C         23.32285         3.40241        -1.02602
C         24.62150         1.33228        -0.38610
C         24.62173         4.14856        -0.79111
C         23.29263         6.32521        -0.61819
C         23.36981         7.68511         0.01387
C         24.56830         5.61371        -0.93920
C         24.67761         8.39932         0.13171
C         23.34484        10.53712         0.64649
C         23.37355        12.02725         0.77526
C         24.70698         9.81644         0.77031
C         24.69346        12.72860         1.02784
C         23.37620        14.95332         0.66265
C         23.40151        16.42031         0.80225
C         24.66018        14.26716         0.93642
C         24.66459        17.13873         0.59405
C         23.39997        19.26493         0.29827
C         24.64411        18.55491         0.43885
C         25.80835         2.06771        -0.33767
C         25.81562         3.51499        -0.56880
C         27.02044         1.42857         0.00535
C         27.09628         4.25097        -0.57279
C         25.86788         6.38959        -0.98805
C         25.86350         7.87769        -0.64751
C         27.13044         5.62884        -0.87135
C         27.13204         8.75025        -0.71082
C         25.94023        10.64481         0.41061
C         25.96607        12.03734         0.77329
C         27.13434         9.96267         0.20264
C         27.18386        12.77556         0.78534
C         25.89576        14.98861         0.69502
C         25.89019        16.40779         0.50603
C         27.15361        14.25602         0.91321
C         27.10335        17.12254         0.32589
C         25.87104        19.24377         0.34060
C         27.10514        18.54650         0.30033
C         28.22906         2.13429         0.04998
C         28.28653         3.51594        -0.28605
C         29.41838         1.43986         0.50338
C         29.67143         4.09135        -0.51966
C         28.41860         6.38339        -0.91216
C         28.43029         7.90718        -0.77387
C         29.70381         5.62557        -0.62882
C         29.71268         8.56333        -0.37204
C         28.40712        10.65112         0.47992
C         28.42247        12.12372         0.59249
C         29.69854         9.92841         0.25227
C         29.66943        12.82846         0.41987
C         28.44574        15.00648         0.67390
C         28.35973        16.36554         0.00109
C         29.68475        14.25199         0.39867
C         29.62881        17.15052         0.19262
C         28.33866        19.25203         0.23313
C         29.58676        18.57299         0.24611
C         30.57909         2.11047         0.74582
C         30.70124         3.50506         0.42265
C         31.79444         4.23481         0.82117
C         30.89183         6.34346        -0.06709
C         30.95090         7.78500        -0.10325
C         31.88981         5.63130         0.57089
C         32.11456         8.51845         0.05517
C         30.96288        10.69164         0.12378
C         30.90683        12.13575         0.17184
C         32.12587         9.94474         0.03956
C         32.07356        12.89013        -0.07048
C         30.86755        14.98655         0.15447
C         30.85550        16.46027         0.20892
C         32.06243        14.27718        -0.07639
C         32.04952        17.20621         0.30403
C         30.81163        19.29035         0.32357
C         32.01832        18.60547         0.35656
O         29.31737         8.51289        -1.77360
O         21.99396        12.46016        -1.24724
O         19.19201        14.76090        -1.61912
O          5.41207         5.97595         1.76133
O         29.15342         9.95068         1.60622
O         19.46517         6.07691        -1.91475
O         22.56822        16.89534         1.91914
O         15.09709         7.98573        -2.11095
O         24.20907         7.50431         1.20355
O          4.61279        17.90931        -1.85939
O         22.96321        11.21520         1.90316
O         17.17901         4.84780        -2.31384
O         13.41294         8.14679         1.31021
O          6.73676        14.07125        -1.43105
O         15.76237        15.58409         1.30151
O         22.58257         4.65067         1.01678
O         27.95002        14.86425         2.02108
O         24.67175        13.53782         2.22965
O         11.16241        11.61738         1.74262
O         14.87674        17.73982        -1.69897
O         25.68149         7.41292        -2.02218
O          9.65275         9.09573         1.79521
O         29.33328         5.99888        -2.00025
O         23.61630         6.09404        -2.00643
O         25.02942         9.68504         2.12230
O          8.39784        20.27720         0.64806
H          8.46758        19.79967         1.49959
O         15.43054         4.09199         1.31531
H         14.81253         4.55475         1.91959
O         20.73959         2.21992        -2.33095
H         21.58003         2.63556        -2.65520
O         15.24987         3.20514        -2.22247
H         15.69879         3.85988        -2.81065
O          8.87129         3.50596        -1.41543
H          9.59127         2.87360        -1.62548
O          9.79802        12.80717        -1.47874
H          8.98707        13.24783        -1.81597
O          3.40535        10.50683         2.23341
H          2.79644        11.21769         2.53044
O         17.38610        17.43049         1.79601
H         17.00028        16.63059         2.22667
O          7.33277        13.26834         2.09428
H          7.65822        12.50343         2.61507
O          9.92909        -0.02497         0.31987
H          9.14758        -0.52765         0.62470
O         30.06053         3.56882        -1.83018
H         29.73049         4.22132        -2.49338
O          4.87934         8.57164        -1.52362
H          5.63258         9.15418        -1.76662
O         20.48006         6.08006         1.58640
H         21.25222         6.36194         2.12265
O         28.27623        16.03280        -1.43529
H         28.30866        16.87473        -1.93729
O         27.04735         9.44642        -1.98832
H         26.95127         8.76080        -2.68892
O         16.02291        12.34768        -2.30922
H         15.30244        11.76804        -2.67002
O         14.30874        10.32908        -2.30286
H         14.70470         9.59804        -2.84078
O          8.72454         7.90020        -1.52139
H          8.10492         7.26283        -1.93561
O          9.58417         4.04359         2.14969
H         10.17486         4.67164         2.61556
O          2.01274        17.18536        -2.05218
H          2.85179        17.57465        -2.40202
O          9.82425        17.07397        -2.19600
H         10.69441        17.43734        -2.46727
O         23.06012         3.52025        -2.45242
H         23.15013         4.47984        -2.68973
O         20.71913         2.88225         1.28274
H         21.06476         3.63398         1.81860
O          2.49615        14.34569         2.12687
H          2.49432        15.29210         2.38234
O          9.80631        14.32562         1.85252
H          9.85691        15.25348         2.16054
H          0.31314         1.42168        -0.33958
H          0.22863         3.87289        -0.14169
H          2.48817         0.20704        -0.29711
H          0.17964         5.79953        -0.09705
H          0.15695         8.23241         0.02202
H          0.25326        10.16361        -0.39538
H          0.18822        12.58198        -0.00696
H          0.10913        14.53732         0.70561
H          0.02896        16.75003        -0.26305
H          1.39217        18.85461         0.39405
H          4.93867         0.24369        -0.01870
H          3.50736        20.09217         0.45197
H          7.33173         0.26715         0.56895
H          6.03674        20.21018         0.00832
H          9.82553         1.25300         1.96690
H          8.49623        19.92234        -1.36850
H         12.28096         0.23846         0.31915
H         10.93976        20.30896        -0.05912
H         14.76319         0.21984         0.23418
H         13.39676        20.38268        -0.23135
H         17.19573         0.18857        -0.04250
H         16.05871        20.42982        -0.50504
H         19.61774         0.09984        -0.42664
H         18.53524        20.39657        -0.37932
H         22.18414         0.15441        -0.41760
H         20.95622        20.38444        -0.14347
H         24.65420         0.25576        -0.16000
H         23.44441        20.35144         0.13012
H         27.01153         0.35457         0.24272
H         25.87094        20.34078         0.26205
H         29.32962         0.37098         0.74546
H         28.32643        20.35163         0.23745
H         31.43468         1.60028         1.21279
H         32.58365         3.75027         1.41442
H         32.75166         6.16996         0.98816
H         33.08088         8.00246         0.14541
H         33.10624        10.44096         0.02617
H         33.02100        12.37277        -0.27180
H         33.00026        14.81494        -0.26898
H         33.02111        16.69625         0.34700
H         30.79130        20.38832         0.37065
H         32.96224        19.16359         0.42847
