         266
 CSIRO Nanostructure Databank - Neutral Graphene Oxide Data Set
C        -11.12473         0.77012         0.46197
C         -9.86033         1.48812         0.87259
C         -8.56333         1.02553         0.06119
C         -7.39238         1.48304         0.91802
C         -6.10960         0.71034         0.88965
C         -4.83911         1.47568         1.15679
C         -3.53659         0.69439         1.06849
C         -2.23863         1.50324         0.99214
C         -1.05002         0.72142         0.43053
C         -0.00285         1.35793        -0.15666
C          1.27345         0.67831        -0.51563
C          2.52492         1.47448        -0.27771
C          3.81770         0.77999         0.06605
C          4.84533         1.60407         0.87299
C          6.20338         0.88045         0.94048
C          7.47759         1.59579         0.63547
C          8.70151         0.82835         0.23912
C          9.98650         1.58588         0.18903
C         11.19544         0.77798         0.19250
C         -9.84924         2.98469         0.65993
C         -8.69453         3.71626         0.81844
C         -7.49329         2.96115         1.48215
C         -6.15444         3.81734         1.44269
C         -4.86730         2.97547         1.16922
C         -3.70618         3.60022         0.43247
C         -2.44583         2.82773         0.23062
C         -1.17940         3.63544        -0.01940
C         -0.08447         2.76380        -0.70729
C          1.18702         3.54759        -0.58364
C          2.36568         2.93989         0.01967
C          3.60892         3.76684         0.20077
C          4.91113         2.98550         0.13329
C          6.21397         3.61854        -0.30568
C          7.47074         3.06356         0.29603
C          8.76993         3.78783         0.12768
C         10.00440         2.95521         0.12003
C         -8.65017         5.13155         0.66821
C         -7.45181         5.87178         0.54562
C         -6.17085         5.03301         0.42523
C         -4.87552         5.85397         0.66645
C         -3.61836         5.09747         0.43790
C         -2.57088         5.76154        -0.40194
C         -1.35807         4.94288        -0.86661
C         -0.04176         5.72899        -0.74076
C          1.20777         4.92636        -1.17511
C          2.45697         5.70777        -0.86243
C          3.52868         5.20554        -0.18978
C          4.65164         6.09556         0.23549
C          6.38200         4.96484        -1.00109
C          7.52669         5.84228        -0.58394
C          8.71911         5.21672        -0.31169
C         -7.43609         7.23958         0.30245
C         -6.21299         8.06317         0.38117
C         -4.88786         7.35244         0.52295
C         -3.59351         8.07563         0.17956
C         -2.58261         7.24895        -0.57759
C         -1.34859         7.80662        -1.28537
C         -0.02775         7.23292        -0.84830
C          1.23092         7.97576        -1.25499
C          2.48687         7.11186        -1.33296
C          3.81569         7.74198        -1.34191
C          4.86714         7.30317        -0.59213
C          6.17427         7.99194        -0.58507
C          7.36798         7.29286        -0.58148
C         -6.14590         9.46990        -0.07827
C         -4.98889        10.16962        -0.12311
C         -3.62842         9.58487         0.03559
C         -2.48610        10.40925        -0.49024
C         -1.19531        10.12889        -0.34554
C          0.10128        10.00004        -0.11191
C          1.22148         9.55824        -1.08864
C          2.53567        10.15025        -0.55829
C          3.77556         9.87532        -1.03776
C          5.08647        10.28224        -0.52172
C          6.16605         9.44823        -0.45015
C        -11.11096        -0.54890         0.21570
C         -9.85680        -1.27109        -0.12540
C         -8.55302        -0.46587        -0.29410
C         -7.23348        -1.22150        -0.44612
C         -5.97011        -0.54069         0.03767
C         -4.72126        -1.37508         0.16667
C         -3.55096        -0.79266         0.92696
C         -2.24327        -1.54045         0.90746
C         -0.98187        -0.75247         0.63971
C          0.14723        -1.50646         0.02823
C          1.32188        -0.83365        -0.67308
C          2.58794        -1.50729        -0.14336
C          3.83070        -0.71678         0.12126
C          4.85595        -1.34148         1.05180
C          6.21521        -0.64570         1.05258
C          7.51334        -1.39767         0.90159
C          8.71493        -0.66113         0.38447
C         10.00680        -1.39274         0.41907
C         11.20516        -0.58476         0.30066
C         -9.65585        -2.68159         0.08226
C         -8.63297        -3.41811        -0.73960
C         -7.23605        -2.70969        -0.77158
C         -5.94839        -3.53944        -0.67821
C         -4.70065        -2.86044        -0.16220
C         -3.70217        -3.68402         0.67599
C         -2.30576        -3.03229         0.77194
C         -1.11933        -3.76725         0.26598
C         -0.05964        -2.93709        -0.42849
C          1.31719        -3.60616        -0.47197
C          2.53335        -2.86108         0.00064
C          3.71112        -3.64639         0.46324
C          4.95142        -2.87713         0.83994
C          6.25877        -3.55716         0.55636
C          7.54191        -2.86509         0.75130
C          8.76634        -3.55477         0.53656
C         10.00137        -2.76420         0.48033
C         -8.59155        -4.90574        -0.46999
C         -7.45092        -5.62108        -0.38604
C         -6.07588        -5.05561        -0.62434
C         -4.98745        -5.81639         0.19807
C         -3.63387        -5.14377         0.25233
C         -2.45283        -5.82900         0.15029
C         -1.16594        -5.11294         0.05334
C         -0.04223        -5.81436        -0.72013
C          1.30978        -5.08224        -0.67025
C          2.61312        -5.87928        -0.59352
C          3.69493        -5.20104         0.31209
C          5.05117        -5.87054        -0.06172
C          6.29286        -5.01659         0.22412
C          7.56160        -5.80598         0.58432
C          8.78660        -4.94993         0.36584
C         -7.11747        -6.77958        -1.30570
C         -6.18136        -7.86987        -0.83549
C         -4.94293        -7.29261        -0.24145
C         -3.64679        -7.89147        -0.78484
C         -2.43950        -7.30964        -0.07823
C         -1.17943        -8.04471        -0.34685
C          0.09156        -7.29712        -0.42811
C          1.25429        -8.00207        -0.50888
C          2.51111        -7.32580        -0.11972
C          3.75754        -8.07417         0.24630
C          5.11130        -7.30064         0.56699
C          6.35362        -7.92216        -0.06597
C          7.50379        -7.18557        -0.07225
C         -6.07558        -9.20004        -1.48685
C         -4.96603        -9.96388        -1.32776
C         -3.69033        -9.40557        -0.88489
C         -2.51755       -10.09774        -0.95749
C         -1.22253        -9.33635        -1.14653
C          0.06745       -10.10664        -0.99733
C          1.27724        -9.46290        -0.66657
C          2.51708       -10.12726        -0.61611
C          3.81005        -9.57080        -0.03165
C          5.07234        -9.93784        -0.78257
C          6.21519        -9.21544        -0.72841
O          1.48211        -4.15681        -1.81477
O         -1.43068         8.44899        -2.32035
O          6.38958        -4.04975        -0.86885
O         -0.50372        -5.78329        -2.09263
H         -0.58042        -4.83010        -2.34504
O         -7.05669         0.53108         1.97081
O         -4.63709         2.23669         2.40097
O          5.72154         5.22065        -1.99502
O         -4.86167        -3.13414        -1.56443
O         -8.50298         1.73742        -1.18127
H         -8.94348         1.19457        -1.87225
O         -0.68370         4.06012         1.25258
H         -0.88994         3.36774         1.93179
O          7.03018         1.42447         2.01465
O          1.69425         7.46563        -2.51514
O         -3.68680        -0.20325         2.24052
O         -1.81285        -8.10020         0.98160
O         -7.91292         2.88711         2.79106
O          5.46770         2.71976        -1.18237
O          5.19964        -6.14448        -1.46170
H          5.38784        -5.30312        -1.93277
O         -3.20776         8.92130         1.28190
O          2.75713        -7.78866         1.26009
O         -5.56189        -5.77634         1.56661
O         -7.13272        -1.72127        -1.81880
O          8.46661        -0.03108        -0.92817
O         -3.25100         6.39066        -1.54956
O         -6.00455         4.38558         2.71672
H         -6.69181         3.94780         3.29664
O          4.38271         0.00001        -1.02599
O          2.77734         3.43285         1.34381
O          6.99242        -1.02775         2.23217
O          4.12499        -3.44509         1.86731
O         -1.55870         4.66862        -2.25204
H         -2.38450         4.14048        -2.34713
O         -0.61302        -2.87981        -1.77176
H          0.04641        -2.42301        -2.35007
O         -9.37135        -0.74140        -1.44529
O          3.84722       -10.26183         1.25152
H          3.41106        -9.66390         1.90230
O         -3.95314         5.55781         1.77193
O          2.00849         1.28464        -1.63848
O         -2.10486        -2.40499         2.07518
O          0.02642         6.55653         0.44052
O         -1.86639         1.87661         2.34248
H         -2.69156         1.88560         2.88803
O         -1.24466        -8.92365        -2.54742
H         -2.05680        -8.31462        -2.63346
O          5.34397         5.80991         1.21300
O          4.30642        -1.09701         2.35519
H          4.91946        -1.46825         3.02555
O          8.01893         3.78543         1.43495
O          0.14509        -1.24391         1.44849
O         -6.18056        -5.77347        -1.94891
O          1.13556         4.77452        -2.61278
H          0.20830         4.51620        -2.84840
O         -0.42084         2.54568        -2.10067
H          0.35857         2.10246        -2.50895
O         -9.15617        -3.35850        -2.09852
H         -8.81625        -2.51851        -2.49565
O         -5.84756        -8.05276         0.60229
O         -5.53267         7.91418         1.69059
O          5.26361        -7.23213         1.95647
O         -4.95476        -0.49784        -0.99170
O         -3.49111        -7.48653        -2.14637
O          1.25020        -1.09545        -2.09194
H          1.88569        -0.47847        -2.52557
O          3.29865        -5.56834         1.63977
H          3.99706        -6.13492         2.08295
O         -6.14978         4.52219        -0.84062
O         -3.41960         2.90567        -0.83866
O          3.88836         8.91804        -2.08482
O          2.96843        -6.08513        -1.97218
H          2.65777        -5.31058        -2.49450
O          4.37333         1.73012         2.20400
H          5.14112         1.92687         2.78521
O          0.96521        10.09453        -2.37996
H          0.16672         9.64707        -2.74472
O         -4.29753        -3.61191         1.98579
H         -3.79675        -4.18971         2.60071
O          7.54741        -5.97561         2.02349
H          6.72838        -6.53747         2.24097
O         -9.72926         1.09968         2.24012
H         -9.06847         1.70441         2.70023
O         -4.62948        -6.45030         2.44656
H         -4.91968        -7.39572         2.37833
H         12.17144        -1.11114         0.29494
H         12.15489         1.31043         0.10936
H         10.97338         3.47485         0.05537
H          9.62459         5.82152        -0.13560
H          8.29956         7.87728        -0.49462
H          7.12804         9.89819        -0.15319
H          5.21988        11.33575        -0.22890
H          2.45125        10.87758         0.26347
H          0.45405        10.34952         0.87851
H         -2.75594        11.39070        -0.92145
H         -5.02757        11.22050        -0.45078
H         -7.09127         9.97568        -0.32736
H         -8.38165         7.74953         0.05280
H         -9.59003         5.68947         0.82321
H        -10.70198         3.44337         0.12886
H        -12.08427         1.28839         0.61226
H        -12.05079        -1.10558         0.08077
H        -10.35028        -3.23420         0.73213
H         -9.53217        -5.43281        -0.69753
H         -7.91565        -7.12033        -2.00313
H         -6.97131        -9.61449        -1.97473
H         -4.96087       -10.99896        -1.70359
H         -2.52944       -11.17529        -1.19023
H          0.07812       -11.18435        -1.23186
H          2.52472       -11.21263        -0.81648
H          5.07267       -10.89527        -1.32643
H          7.10472        -9.59855        -1.25505
H          8.41948        -7.59655        -0.52847
H          9.75751        -5.44476         0.20366
H         10.95627        -3.31086         0.45346
