         429
 CSIRO Nanostructure Databank - Neutral Graphene Oxide Data Set
C          1.15566         3.68035         0.87779
C         -0.02645         4.06187         0.29449
C          1.15052         5.76593        -0.97741
C         -0.02233         5.07949        -0.69360
C          1.16904         7.96951        -1.59681
C         -0.03486         8.71485        -1.67143
C          1.13132        10.71321        -0.90889
C         -0.07089        10.02800        -1.25507
C          1.12693        12.06736        -0.51607
C         -0.08130        12.83763        -0.30720
C          1.20638        14.73089         0.71738
C         -0.05937        14.08690         0.21214
C          1.22414        16.25447         0.56197
C          0.00261        16.99638         0.76192
C          1.08240        19.13781         0.21356
C         -0.04842        18.35683         0.72137
C          1.13731        20.62055         0.30279
C         -0.04716        21.33846         0.57630
C          1.07477        23.48978         0.37855
C         -0.05762        22.73605         0.66852
C          1.06260        24.92998         0.49231
C         -0.16075        25.64912         0.51507
C          0.99727        27.75050         0.88050
C         -0.19524        27.02583         0.66113
C          1.02311        29.19341         1.10207
C         -0.14864        29.87028         1.44433
C          1.08258        31.94166         1.59405
C         -0.10018        31.23017         1.76965
C          1.17802        34.20372         1.11552
C         -0.00310        34.95651         0.91634
C          1.18261        36.35030        -0.65372
C         -0.02307        35.97670        -0.01214
C          1.22415        37.50986        -1.48205
C          3.59738         3.72243         0.85053
C          2.39755         4.31870         0.52003
C          3.53890         6.38002        -0.36449
C          2.38113         5.52909        -0.30131
C          3.53961         7.73639        -0.75941
C          2.37396         8.51188        -1.13812
C          3.58899        10.65935        -1.04686
C          2.39553         9.97350        -0.99746
C          3.58175        12.12887        -0.94497
C          2.37654        12.77860        -0.36827
C          3.71665        14.77280         0.23292
C          2.42231        14.07584         0.08359
C          3.71451        16.24705         0.57410
C          2.41590        16.94723         0.45760
C          3.66395        19.17607         0.12789
C          2.41400        18.38106         0.11273
C          3.60604        20.60487         0.00744
C          2.34925        21.30394         0.07711
C          3.57039        23.58043        -0.09468
C          2.26359        22.78743        -0.25472
C          3.59473        25.00588         0.39312
C          2.27441        25.66092         0.64596
C          3.41920        27.75472         1.37960
C          2.21601        27.03707         0.86985
C          3.49450        29.21754         0.98624
C          2.26539        29.92651         1.00653
C          3.50405        32.09421         0.83466
C          2.27506        31.36202         1.08033
C          3.56477        33.54629         0.48722
C          2.37113        34.42490         0.42353
C          3.60816        36.14786        -0.86375
C          2.38907        35.61956        -0.39138
C          3.64513        37.35802        -1.59155
C          2.42083        38.00429        -1.93893
C          6.11336         3.68349         0.68896
C          4.82817         4.29681         0.21952
C          6.10063         6.44385        -0.00687
C          4.77559         5.81913         0.36851
C          6.09509         7.88699        -0.22697
C          4.77936         8.55068        -0.56311
C          6.13739        10.65288        -0.95501
C          4.87241         9.88599        -1.29049
C          6.16925        12.11720        -1.35182
C          4.87817        12.87440        -1.00002
C          6.14905        14.87895        -0.26725
C          4.95109        14.18493        -0.31605
C          6.19889        16.30154        -0.00782
C          5.01150        17.05667         0.56215
C          6.09161        19.20944        -0.09030
C          4.89066        18.49362         0.08596
C          6.05834        20.62055        -0.05610
C          4.83985        21.32642        -0.04005
C          6.13759        23.58624         0.15236
C          4.86906        22.81098        -0.15037
C          6.12637        24.96569         0.72957
C          4.86229        25.67013         0.87489
C          5.77972        27.86849         1.70496
C          4.72208        27.02318         1.22510
C          5.93931        29.21906         1.39346
C          4.71463        29.92318         1.01485
C          6.00738        32.04585         0.83328
C          4.69535        31.34369         0.86155
C          5.99892        33.26800        -0.02453
C          4.74815        34.06769        -0.00669
C          6.04350        35.85453        -1.33149
C          4.89093        35.54299        -0.35379
C          6.10396        37.34459        -1.60833
C          4.89910        37.99159        -1.86730
C          8.55797         3.71323         0.75253
C          7.30532         4.35458         0.51856
C          8.56090         6.44965        -0.09074
C          7.29481         5.76488         0.10709
C          8.56998         7.84532        -0.44418
C          7.36369         8.56167        -0.52638
C          8.61845        10.67806        -0.85546
C          7.34031         9.97732        -0.78430
C          8.64150        12.07737        -0.84875
C          7.40174        12.82727        -0.84255
C          8.66616        14.85302        -0.11335
C          7.38976        14.16229        -0.52797
C          8.62857        16.32823        -0.39875
C          7.37586        16.99836        -0.24772
C          8.63131        19.15960        -0.44034
C          7.31229        18.46515        -0.59888
C          8.61993        20.59451        -0.11947
C          7.34150        21.33931         0.11216
C          8.60092        23.46857         0.28299
C          7.39090        22.80939         0.21867
C          8.63859        24.84788         0.64294
C          7.41566        25.50046         1.03199
C          8.65718        27.63906         1.33097
C          7.60828        26.79845         1.63958
C          8.62456        29.10935         1.54109
C          7.26459        29.89334         1.55293
C          8.58559        31.95701         0.64248
C          7.30677        31.35221         1.13431
C          8.58387        33.24819         0.07954
C          7.32327        33.88714        -0.37635
C          8.53058        35.98518        -0.92590
C          7.34928        35.28941        -0.83014
C          8.55893        37.37110        -1.39107
C          7.33638        38.01083        -1.69911
C         11.00761         3.71682         0.76087
C          9.77238         4.37747         0.54675
C         11.02670         6.43172        -0.07819
C          9.77369         5.76523         0.11751
C         11.02993         7.78965        -0.52324
C          9.83362         8.51059        -0.66868
C         11.07167        10.64383        -1.00740
C          9.85270         9.94359        -0.88200
C         11.11520        12.06961        -0.98166
C          9.88654        12.78670        -0.82702
C         11.10389        14.90306        -0.75656
C          9.89847        14.18258        -0.65281
C         11.08911        16.33563        -0.65610
C          9.82466        17.02542        -0.57646
C         11.11045        19.16945        -0.59623
C          9.83236        18.47804        -0.56421
C         11.08817        20.63015        -0.75742
C          9.81578        21.37712        -0.53189
C         11.15697        23.47469         0.07143
C          9.85134        22.83276        -0.19763
C         11.13427        24.82138         0.54494
C          9.91353        25.48886         0.76291
C         11.20133        27.67962         1.15981
C          9.93180        26.90924         1.16774
C         11.08922        29.14633         0.99110
C          9.86512        29.84007         1.10920
C         11.04947        31.90719         0.46501
C          9.82635        31.23490         0.78173
C         11.04370        33.30064         0.05644
C          9.79329        33.95895        -0.18370
C         10.98784        36.01697        -0.88482
C          9.79088        35.32444        -0.63634
C         11.02213        37.40359        -1.26902
C          9.78014        38.05169        -1.50513
C         13.46543         3.70226         0.84732
C         12.23649         4.37441         0.58534
C         13.51442         6.42415         0.03620
C         12.25431         5.75001         0.15877
C         13.57095         7.79168        -0.38061
C         12.32150         8.41828        -0.84332
C         13.60915        10.64429        -0.91405
C         12.34388         9.91777        -1.12226
C         13.60670        12.05691        -0.99339
C         12.34452        12.78046        -1.04119
C         13.55471        14.94356        -0.96093
C         12.33887        14.20422        -0.96584
C         13.53504        16.33173        -0.74030
C         12.30184        17.04818        -0.65037
C         13.61416        19.21180        -0.57322
C         12.33136        18.49238        -0.58297
C         13.61636        20.59847        -0.51454
C         12.37899        21.38953        -0.61376
C         13.63091        23.46768         0.02851
C         12.35853        22.78207        -0.11360
C         13.67504        24.80161         0.36574
C         12.45254        25.46518         0.96081
C         13.60267        27.66881         0.61718
C         12.44063        26.96632         0.77578
C         13.57542        29.11794         0.66818
C         12.29221        29.82337         0.68301
C         13.58074        31.83125         0.06735
C         12.27049        31.20429         0.47485
C         13.52775        33.33142         0.11433
C         12.24146        33.96302        -0.20723
C         13.56832        36.04787        -1.00102
C         12.25115        35.28337        -0.82619
C         13.51340        37.51546        -1.13651
C         12.25062        38.11277        -1.35472
C         15.92940         3.69738         1.04048
C         14.69077         4.35505         0.72677
C         15.96696         6.42219         0.21869
C         14.72095         5.73820         0.32442
C         15.99823         7.81859        -0.06735
C         14.77555         8.50837        -0.37598
C         16.01821        10.67343        -0.49903
C         14.81022         9.94508        -0.64145
C         16.04488        12.07450        -0.68870
C         14.83094        12.75588        -0.94864
C         16.02550        14.89083        -0.61421
C         14.84876        14.22888        -1.28148
C         15.86145        16.18259        -0.16837
C         14.77002        17.04952        -0.49427
C         16.15696        19.16058        -0.58805
C         14.87672        18.45963        -0.50066
C         16.14343        20.61446        -0.90983
C         14.83342        21.38805        -0.77969
C         16.06393        23.51145        -0.50402
C         14.85751        22.82040        -0.42561
C         16.23330        24.88283         0.03706
C         14.89780        25.61293        -0.02961
C         16.04503        27.61445         0.90870
C         14.89270        26.99034         0.54901
C         16.00247        29.07644         1.12115
C         14.75986        29.79121         0.78617
C         16.07341        31.91236         0.42462
C         14.76149        31.29328         0.88257
C         16.07091        33.23950        -0.30060
C         14.81562        34.04797        -0.07576
C         16.00839        36.14168        -0.54841
C         14.82579        35.44057        -0.55310
C         15.98096        37.57253        -0.81617
C         14.72871        38.21880        -1.05632
C         18.38575         3.71828         1.33275
C         17.13759         4.35051         0.92952
C         18.41174         6.39404         0.31597
C         17.18587         5.72660         0.47743
C         18.43403         7.78056         0.03774
C         17.24182         8.50318        -0.06864
C         18.54709        10.66883        -0.32139
C         17.24557        10.00515         0.06671
C         18.56699        12.07025        -0.56940
C         17.31644        12.81237        -0.63369
C         18.55964        14.97942        -0.84201
C         17.30026        14.20979        -0.58009
C         18.70869        16.44776        -0.71133
C         17.69310        17.25161        -0.19150
C         18.63242        19.30241        -1.24180
C         17.44267        18.58197        -0.60172
C         18.71361        20.71526        -0.62170
C         17.37990        21.41641        -0.87002
C         19.04859        23.74386        -0.31421
C         17.20738        22.77905        -0.98359
C         18.70586        24.75398         0.60911
C         17.39609        25.46921         0.53406
C         18.53706        27.70527         1.33018
C         17.27641        26.81841         1.30747
C         18.55494        29.09796         1.05097
C         17.28397        29.85593         1.08016
C         18.53678        31.96572         0.45248
C         17.26249        31.27036         0.62157
C         18.53539        33.38150         0.19803
C         17.30764        34.06746        -0.05324
C         18.47953        36.21123        -0.23212
C         17.26591        35.45385        -0.25411
C         18.43096        37.62440        -0.48056
C         17.18940        38.27511        -0.75880
C         19.57360         4.34359         1.21399
C         20.71533         6.59197         1.20508
C         19.72867         5.67032         0.51763
C         20.73409         7.89735         0.90878
C         19.78831         8.43685        -0.15118
C         20.97131        10.62351        -0.37343
C         19.74595         9.94839        -0.23419
C         21.00695        11.99878        -0.56538
C         19.81827        12.73604        -0.69771
C         21.11506        14.96191        -0.95460
C         19.85813        14.18325        -1.01699
C         21.13768        16.31121        -1.08575
C         19.93148        17.12475        -1.07913
C         21.16014        19.29406        -1.05143
C         19.94073        18.52751        -1.10740
C         21.20057        20.64734        -0.96206
C         19.97209        21.51532        -1.06753
C         20.85734        22.84494         0.96310
C         20.04276        22.75937        -0.17055
C         20.70635        23.93781         1.82175
C         19.67855        24.87565         1.64380
C         20.91959        27.89768         1.90540
C         19.71667        27.17864         1.87980
C         20.95511        29.19675         1.41050
C         19.76175        29.84580         1.03174
C         20.94937        32.03703         0.66361
C         19.74647        31.28522         0.70568
C         20.95384        33.40359         0.43926
C         19.75349        34.12192         0.22037
C         20.90295        36.34281         0.01246
C         19.72553        35.55808         0.00269
C         20.85005        37.71895        -0.20799
C         19.63636        38.35977        -0.45674
O         14.22278        33.94766         1.26156
O         16.59843        29.59923         2.38515
O          3.81624        15.25232         1.66285
O          9.59808        22.35774        -1.58460
O         18.23511        23.62327        -1.45038
O          6.57382        33.00628        -1.35803
O          5.66483        23.35393        -1.25339
O          1.59337        18.65662        -1.07164
O          8.15412        20.79660         1.26549
O         10.69489        27.15547         2.45781
O         11.77166        21.14077        -1.94282
O         12.39426         8.94066        -2.21617
O          3.98439        12.88558        -2.18365
O          3.62370        24.68382        -1.05663
O          5.25600         8.62135         0.81471
O         15.36369        21.00853        -2.09683
O         12.98202        35.30520        -2.13101
O          8.01116        29.61545         2.76858
O          6.67758        27.25017         2.56934
O         19.05501        14.55646        -2.17750
O          1.09212        33.23531         2.11562
O          1.11163         6.65347        -2.07042
O         19.69979        25.93858         2.53394
O         16.81264        16.68156         0.73543
O          6.64093        32.22531         2.13882
O         20.29955         8.02208        -1.44888
H         20.42852         7.03912        -1.41762
O         17.14257        10.22080         1.53015
H         17.10178        11.19032         1.67616
O          5.74728        35.23824        -2.60901
H          5.94431        34.27222        -2.51898
O         14.67190        25.86201        -1.46983
H         14.68706        24.99235        -1.92646
O          6.29137        12.11040        -2.81375
H          5.46401        12.52253        -3.16604
O         20.28891         5.35894        -0.81009
H         19.64091         4.78692        -1.27363
O         18.83463        20.57062         0.81455
H         18.12013        19.97577         1.12841
O          4.58185         6.12611         1.77415
H          4.68901         7.10499         1.86255
O          4.75561         4.02937        -1.22366
H          4.78818         3.05833        -1.35117
O         13.82975        31.42507        -1.30412
H         13.25310        31.94885        -1.89876
O         15.02060        14.33114        -2.73243
H         15.89700        13.94926        -2.95376
O         17.02691        26.43172         2.68830
H         16.89716        27.25757         3.20351
O          3.19581        27.80475         2.84462
H          3.96424        28.26522         3.24757
O         19.85716        21.84645        -2.46757
H         19.23274        22.60970        -2.54337
O         14.57612        31.61081         2.28004
H         15.27506        31.12351         2.77580
O         18.35665        19.45504        -2.65091
H         18.95694        20.16344        -2.98879
O         16.08260        32.93444        -1.73396
H         16.88710        32.40796        -1.92448
O          7.07546        18.44734        -2.06563
H          7.87851        18.08285        -2.49652
O          1.26547        14.44605         2.15199
H          2.17018        14.71687         2.44442
O          8.74804        14.72309         1.35436
H          8.80270        13.76577         1.56046
O          5.23064        36.21817         0.89609
H          4.48811        36.08690         1.52275
O          1.95825        22.80637        -1.68688
H          2.30259        23.66422        -2.03103
O          4.95919         9.57709        -2.71402
H          5.38054        10.35492        -3.15216
O         12.56571        25.22737         2.40632
H         11.88228        25.80600         2.83367
O          5.36078        17.25431         1.97241
H          5.21124        16.39063         2.42215
H          1.18878         2.83026         1.57375
H         -0.96462         3.54533         0.53907
H         -0.93591         5.31170        -1.25571
H         -0.94691         8.21187        -2.01856
H         -1.02841        10.56493        -1.25471
H         -1.04932        12.39668        -0.58494
H         -1.01282        14.61384         0.35910
H         -0.88951        16.44747         1.09406
H         -0.95627        18.86996         1.06736
H         -0.98060        20.79611         0.77485
H         -0.97708        23.22843         1.01514
H         -1.10597        25.11139         0.36116
H         -1.16390        27.54262         0.62244
H         -1.09534        29.32576         1.55629
H         -0.97916        31.73966         2.18410
H         -0.89961        34.69340         1.49239
H         -0.94329        36.54528        -0.20614
H          0.28279        38.03308        -1.70399
H          3.62665         2.79079         1.43526
H          2.45284        38.92468        -2.53905
H          6.11955         2.62253         0.98509
H          4.89969        39.03150        -2.22854
H          8.56406         2.66114         1.07431
H          7.34941        39.07384        -1.98614
H         11.00059         2.66711         1.09033
H          9.77727        39.10509        -1.82319
H         13.43739         2.65130         1.17162
H         12.20778        39.19415        -1.55623
H         15.89980         2.65605         1.39517
H         14.72158        39.31239        -1.18240
H         18.32971         2.71504         1.78272
H         17.19471        39.36095        -0.93814
H         20.49615         3.84072         1.54209
H         21.41303         6.16345         1.94095
H         21.45614         8.57362         1.39199
H         21.91010        10.05395        -0.34150
H         21.98075        12.49592        -0.66748
H         22.06979        14.42336        -0.87440
H         22.11252        16.81665        -1.13001
H         22.11459        18.74760        -1.01823
H         22.17726        21.15187        -0.91434
H         21.62069        22.08151         1.16603
H         21.38308        24.06624         2.67627
H         21.82177        27.43250         2.32276
H         21.91134        29.73514         1.41358
H         21.91395        31.53953         0.82955
H         21.91823        33.92945         0.43791
H         21.87888        35.87385         0.19644
H         21.78024        38.30422        -0.19192
H         19.61225        39.44331        -0.64131
