         671
 CSIRO Nanostructure Databank - Neutral Graphene Oxide Data Set
C          6.02724        31.49630        -0.82885
C          6.10626        32.75746        -1.31344
C          8.32268        27.31714         0.51628
C          8.33231        28.69969         0.41135
C          7.14322        29.42367        -0.00583
C          8.51011        31.40625        -0.48085
C          7.19362        30.72091        -0.44311
C          8.61482        32.78912        -1.03460
C          7.40584        33.43439        -1.71442
C          8.48923        35.69063        -1.24536
C          7.37017        34.93638        -1.56488
C          8.49010        37.12249        -1.35762
C         10.77528        23.10298         1.31128
C         10.74899        24.44858         1.11004
C          9.52712        25.19715         0.87465
C         10.66447        27.35444         1.43933
C          9.49717        26.57463         0.87566
C         10.72551        28.80730         1.01585
C          9.56629        29.44146         0.64628
C         10.83529        31.63154         0.45859
C          9.49759        30.94854         0.57270
C         10.84868        33.00157         0.08279
C          9.72737        33.63758        -0.54547
C         10.83607        35.81713        -0.42199
C          9.69134        35.02026        -0.75091
C         10.80194        37.21738        -0.60813
C          9.63279        37.89979        -1.08035
C         10.83723        40.11108        -1.14670
C          9.68137        39.32545        -1.30230
C         10.92169        41.49556        -1.43109
C         13.32594        18.83142         0.70759
C         13.28245        20.23279         0.96905
C         12.07303        20.92267         1.10087
C         13.30257        23.09025         1.26217
C         12.04080        22.33684         1.61530
C         13.29660        24.49201         1.22437
C         12.02308        25.22373         0.87478
C         13.19159        27.39977         1.51752
C         11.97355        26.65069         1.31675
C         13.18944        28.85935         1.29342
C         11.99801        29.51813         1.08853
C         13.21953        31.67380         1.10477
C         12.01614        30.96431         0.86660
C         13.15015        33.14251         1.08855
C         12.00591        33.79029         0.38032
C         13.18273        35.97443         0.52338
C         11.99187        35.14976         0.11215
C         13.28879        37.21669        -0.37751
C         12.00606        38.00930        -0.30236
C         13.37280        40.14641        -0.82311
C         12.06576        39.47974        -0.60978
C         13.40429        41.48625        -1.15884
C         12.14735        42.21358        -1.34725
C         13.43846        44.32539        -1.39785
C         12.20904        43.61130        -1.47155
C         13.46811        45.72780        -1.37261
C         15.79160        14.60872        -0.00170
C         15.73753        16.01448         0.07949
C         14.57098        16.70529         0.40154
C         15.77496        18.85340         0.67592
C         14.54534        18.13890         0.57849
C         15.77884        20.25564         0.89736
C         14.54094        20.94602         1.06917
C         15.76911        23.06754         1.10614
C         14.53975        22.36459         1.18839
C         15.75080        24.51048         0.92010
C         14.49807        25.22182         1.12968
C         15.80682        27.41049         1.27018
C         14.53273        26.65385         1.38501
C         15.77100        28.84168         1.33847
C         14.49525        29.54375         0.92169
C         15.70215        31.71125         1.37193
C         14.48549        31.02416         1.23195
C         15.71731        33.19828         1.70155
C         14.41052        33.90525         1.32603
C         15.73624        35.93252         0.50598
C         14.45988        35.12808         0.43786
C         15.72244        37.13976        -0.17810
C         14.51707        38.05148        -0.00702
C         15.88891        40.12732        -0.39648
C         14.65616        39.33690        -0.81376
C         15.93410        41.42372        -1.11528
C         14.66619        42.19328        -1.28061
C         15.93449        44.34322        -1.30957
C         14.69316        43.58726        -1.35500
C         15.93273        45.71932        -1.21473
C         14.68321        46.46035        -1.24806
C         15.89280        48.63857        -1.14614
C         14.68638        47.86318        -1.21186
C         15.86782        50.05471        -1.20348
C         18.13120        10.25730        -0.47608
C         18.20069        11.76125        -0.37519
C         17.02274        12.47046        -0.22914
C         18.25759        14.58062        -0.18841
C         17.01111        13.89618        -0.14745
C         18.27249        16.04890        -0.28430
C         16.95644        16.84164        -0.29059
C         18.29797        18.87601         0.38564
C         17.05591        18.05391         0.67577
C         18.28625        20.34531         0.64594
C         17.00644        20.99545         0.95426
C         18.27492        23.11754         1.26184
C         17.01568        22.39187         1.09313
C         18.29207        24.50771         1.37047
C         17.08010        25.28027         1.04793
C         18.24664        27.41267         1.80470
C         17.00549        26.71304         1.33179
C         18.24233        28.88462         1.45223
C         16.98015        29.57236         1.38156
C         18.20428        31.71880         1.40350
C         16.96926        31.02104         1.37094
C         18.27540        33.23425         1.55542
C         16.96730        33.91082         1.20845
C         18.20929        36.01322         0.63924
C         16.95490        35.20838         0.77165
C         18.26458        37.46324         1.22270
C         17.09782        38.49718         1.22958
C         18.29271        40.34570         0.14866
C         17.02883        39.61280         0.19182
C         18.35718        41.60680        -0.39502
C         17.24081        42.15892        -1.17514
C         18.49796        44.36473        -1.23146
C         17.23800        43.61919        -1.61956
C         18.48734        45.84110        -1.56267
C         17.21887        46.45771        -0.88952
C         18.32429        48.70666        -0.99568
C         17.14736        47.95857        -1.07615
C         18.26990        50.11662        -0.90340
C         17.04773        50.82438        -1.07818
C         18.22739        53.02551        -1.19207
C         17.06161        52.27027        -1.21506
C         18.31650        54.45172        -1.36734
C         20.61661         6.21899        -1.87468
C         20.64461         7.56312        -1.47036
C         19.43813         8.26130        -1.14902
C         20.68757        10.31629        -0.73253
C         19.44738         9.59583        -0.80910
C         20.69572        11.71978        -0.45848
C         19.46013        12.43730        -0.34621
C         20.74399        14.50923         0.02345
C         19.48095        13.85561        -0.20021
C         20.71928        15.90090         0.49571
C         19.56376        16.74629         0.11422
C         20.77855        18.83526         0.74190
C         19.58330        18.16261         0.50274
C         20.78263        20.28302         0.97043
C         19.53976        21.02796         1.02514
C         20.75561        23.04657         1.88994
C         19.50812        22.36790         1.36369
C         20.79270        24.54942         1.65214
C         19.52542        25.25779         1.53596
C         20.78369        27.36572         1.38108
C         19.50941        26.63918         1.51300
C         20.73100        28.86950         1.29429
C         19.43463        29.59106         1.38176
C         20.70851        31.72820         1.37082
C         19.43880        31.02357         1.35825
C         20.74483        33.12911         1.18914
C         19.45643        33.74860         0.69013
C         20.75969        35.99607         0.97604
C         19.51094        35.27231         0.61400
C         20.69132        37.46146         1.13531
C         19.48074        38.18234         0.59010
C         20.73275        40.32521         0.61026
C         19.51826        39.69993         0.68316
C         20.83856        41.58654        -0.24158
C         19.57993        42.43042        -0.07972
C         20.95916        44.44187        -0.91359
C         19.61822        43.75317        -0.78551
C         20.84134        45.91797        -0.63435
C         19.70498        46.55814        -1.02226
C         20.73608        48.71414        -0.29496
C         19.68403        48.05687        -1.18109
C         20.77230        50.18642        -0.51196
C         19.49315        50.86142        -0.58720
C         20.77290        53.03195        -1.07192
C         19.48636        52.37601        -0.76721
C         20.77968        54.34264        -1.45098
C         19.54255        55.11236        -1.40276
C         20.86055        57.20896        -1.49710
C         19.66580        56.54987        -1.31383
C         20.89940        58.66056        -1.49888
C         22.97067         3.55656        -3.05181
C         21.79059         4.19169        -2.67716
C         23.05371         6.24094        -2.17777
C         21.80499         5.54211        -2.23892
C         23.10095         7.59388        -1.73712
C         21.89003         8.26603        -1.38701
C         23.16563        10.32734        -0.86507
C         21.91238         9.63316        -0.98700
C         23.15927        11.68641        -0.47416
C         21.94181        12.40770        -0.33653
C         23.22641        14.53768         0.11369
C         21.95867        13.81614        -0.03051
C         23.26540        15.91757         0.45064
C         22.03027        16.64036         0.76450
C         23.26355        18.77630         0.80674
C         22.02476        18.11202         0.75246
C         23.25515        20.28381         0.63043
C         21.98685        20.96987         1.06722
C         23.22275        23.05905         1.50912
C         22.02815        22.36855         1.41354
C         23.24217        24.44359         2.12549
C         21.98244        25.22962         1.81483
C         23.18890        27.41775         2.05978
C         22.04524        26.68097         1.76636
C         23.10143        28.88223         2.06716
C         21.95267        29.59526         1.66214
C         23.16054        31.75215         1.69852
C         21.93764        31.02378         1.61707
C         23.17051        33.18503         1.56604
C         21.93569        33.86826         1.33169
C         23.17627        36.05936         1.52624
C         21.93404        35.32439         1.27795
C         23.19578        37.44523         1.43580
C         21.95270        38.22656         1.39699
C         23.28080        40.13155         0.46374
C         22.00302        39.74547         1.22129
C         23.34890        41.61606         0.12344
C         22.09691        42.38908        -0.03648
C         23.34214        44.51223        -0.01971
C         22.12493        43.74130        -0.24654
C         23.32027        45.93287        -0.07809
C         22.08028        46.65172        -0.34773
C         23.34492        48.77879        -0.57244
C         22.06569        48.02034        -0.37145
C         23.28339        50.24880        -0.24747
C         21.97429        50.99349        -0.15440
C         23.26559        53.05064        -0.70398
C         22.05415        52.22233        -1.07575
C         23.13588        54.55205        -0.75470
C         22.12441        54.94914        -1.86127
C         23.66086        57.30272        -2.08134
C         21.96414        56.46482        -2.23911
C         23.42138        58.79485        -1.94048
C         22.06159        59.35085        -1.61879
C         23.32665        61.50162        -1.80601
C         22.40715        60.53690        -2.49190
C         24.19324         4.23407        -3.00633
C         25.48682         6.29279        -2.50847
C         24.25314         5.57626        -2.57114
C         25.54200         7.60202        -2.06841
C         24.34816         8.28483        -1.67189
C         25.62335        10.34484        -1.24267
C         24.39237         9.64700        -1.22222
C         25.70217        11.70598        -0.69923
C         24.42691        12.40450        -0.26966
C         25.71131        14.55974        -0.06596
C         24.44198        13.86919        -0.13623
C         25.72689        15.93140         0.35474
C         24.50498        16.62308         0.54884
C         25.74749        18.74481         1.02613
C         24.46533        18.04403         0.82246
C         25.74850        20.25869         1.18202
C         24.48607        20.99976         1.09568
C         25.74617        23.08332         1.39922
C         24.48555        22.36964         1.30492
C         25.79268        24.50648         1.90786
C         24.47850        25.24369         1.81330
C         25.78864        27.34861         2.01622
C         24.48869        26.64405         2.40372
C         25.97977        28.66972         2.41583
C         24.17226        29.72161         2.50089
C         25.66438        31.67987         2.00524
C         24.35259        31.05218         2.07500
C         25.66863        33.11337         1.47564
C         24.39381        33.89457         1.67637
C         25.65378        36.00421         1.91347
C         24.42556        35.31604         1.71062
C         25.64682        37.46249         2.10686
C         24.40847        38.23436         1.72007
C         25.68747        40.33070         1.33056
C         24.50730        39.62883         1.21859
C         25.80022        41.72444         0.92787
C         24.63042        42.38191         0.30030
C         25.71172        44.58498         0.63904
C         24.54476        43.85257         0.32707
C         25.66629        45.99666         0.64852
C         24.48702        46.67352         0.26793
C         25.66261        48.85370         0.27042
C         24.52344        48.11607         0.09100
C         25.74846        50.27386        -0.22439
C         24.42833        50.97212        -0.17537
C         25.59738        53.21383         0.07977
C         24.40132        52.43774        -0.25320
C         25.59687        54.56452        -0.08899
C         24.52548        55.20016        -0.96270
C         25.74195        57.42428        -0.66752
C         24.40020        56.73456        -0.86307
C         25.69386        58.87030        -0.81484
C         24.57283        59.51235        -1.25224
C         24.42079        60.96204        -1.22250
C         26.89550         8.26800        -1.97961
C         28.02828        10.46797        -1.71712
C         26.84245         9.74760        -1.68584
C         28.09836        11.86820        -1.43127
C         26.79641        12.60824        -1.22696
C         28.26718        14.47024        -0.20982
C         26.89498        13.90562        -0.47131
C         28.27573        15.98563        -0.00474
C         27.04591        16.59117         0.70525
C         28.25831        18.85896         0.53602
C         26.97110        18.09564         0.62795
C         28.14217        20.36587         0.53958
C         26.97452        21.01834         0.89778
C         28.24747        23.17901         1.17954
C         26.92941        22.44416         1.07989
C         28.08885        24.64687         0.86819
C         26.94065        25.28513         1.29719
C         28.04919        27.48609         1.03737
C         26.88920        26.71978         1.37805
C         28.07620        28.88650         1.27687
C         26.98338        29.52712         1.91847
C         28.19203        31.70705         1.87218
C         26.86601        30.97898         1.95162
C         28.12195        33.19040         1.66144
C         26.93659        33.87947         1.75925
C         28.14436        36.00069         2.08677
C         26.92415        35.32380         1.89153
C         28.22795        37.46156         2.29791
C         26.93243        38.22397         2.21680
C         28.16977        40.42615         2.06090
C         27.00208        39.58847         1.52270
C         28.12519        41.94251         1.90980
C         26.94248        42.47499         1.13662
C         28.15716        44.63381         0.98303
C         26.95711        43.90181         0.91390
C         28.17098        46.04887         0.98838
C         26.87398        46.73785         1.03414
C         28.15542        48.94505         0.67436
C         26.87263        48.25271         0.83950
C         28.10890        50.38151         0.53564
C         26.90487        51.04134         0.33594
C         28.10332        53.25260         0.39851
C         26.80053        52.51275         0.68073
C         28.06680        54.61694         0.24887
C         26.77034        55.37590         0.40948
C         26.80730        56.78714        -0.11925
C         29.26593        12.58476        -1.53207
C         30.27056        14.79369        -1.75445
C         29.29345        14.00383        -1.23744
C         30.29049        16.30227        -1.70792
C         29.30665        16.86036        -0.65737
C         30.10516        19.25845        -1.11196
C         28.95655        18.36192        -0.75359
C         30.38876        20.47928        -0.52125
C         29.32183        21.12100         0.21765
C         30.44383        23.26169        -0.09895
C         29.35725        22.50862         0.40687
C         30.35521        24.68913        -0.12919
C         29.20213        25.37837         0.32392
C         30.31165        27.55657         0.04135
C         29.17882        26.82037         0.39992
C         30.43614        28.95267         0.46982
C         29.21672        29.68709         0.86767
C         30.28223        31.88956         0.30979
C         29.23595        31.04222         1.00970
C         30.46898        33.27897         0.89671
C         29.37933        33.87858         1.51790
C         30.68376        36.09468         1.54394
C         29.40933        35.28584         1.92749
C         30.57763        37.56569         1.46798
C         29.46575        38.20227         1.91496
C         30.72827        40.42036         1.75536
C         29.47645        39.68459         2.04485
C         30.63823        41.86403         1.63720
C         29.45009        42.52336         1.46771
C         30.68344        44.71265         1.14235
C         29.45561        43.89097         0.83332
C         30.63892        46.12481         1.03818
C         29.37387        46.80530         0.96781
C         30.60725        48.98365         0.84264
C         29.35366        48.24452         0.84596
C         30.57316        50.39795         0.74980
C         29.36558        51.12536         0.62408
C         29.33284        52.52010         0.45060
C         31.68624        16.85227        -1.45925
C         32.98421        19.06446        -1.27462
C         31.91663        18.20375        -1.62945
C         32.84965        20.49022        -1.16460
C         31.61659        21.19034        -0.81847
C         32.79434        23.35901        -0.92471
C         31.61511        22.58924        -0.62534
C         32.75481        24.76563        -0.96161
C         31.44968        25.42705        -0.77170
C         32.71124        27.68573        -0.84260
C         31.43480        26.95825        -0.67447
C         32.76984        29.05452        -0.58708
C         31.67935        29.72303         0.15162
C         32.70995        31.90292        -0.29192
C         31.61097        31.19470         0.10534
C         32.55269        33.39491        -0.53702
C         31.62713        34.03838         0.50021
C         32.86421        36.19135         0.33370
C         31.70327        35.40813         0.74596
C         32.94858        37.58649         0.59543
C         31.67542        38.35023         0.78916
C         33.14476        40.41200         1.14946
C         31.87071        39.75129         1.33253
C         33.20825        41.84717         1.52695
C         31.91202        42.61276         1.63245
C         33.14029        44.76307         1.23165
C         31.90313        44.05554         1.33314
C         33.10375        46.15529         1.08975
C         31.86982        46.86484         1.04454
C         31.82437        48.28071         0.94977
C         34.02707        21.25804        -1.26786
C         35.18781        23.43028        -1.47141
C         34.02424        22.67471        -1.21669
C         35.16242        24.84210        -1.47816
C         33.92003        25.52675        -1.23693
C         35.09226        27.68005        -1.47914
C         33.90478        26.96642        -1.23908
C         35.05072        29.18003        -1.65592
C         33.91718        29.83420        -0.90856
C         35.17371        31.94520        -0.77938
C         33.92912        31.21218        -0.68053
C         35.19466        33.32742        -0.60047
C         33.91729        34.13041        -0.77320
C         35.22577        36.16331        -0.23208
C         34.00036        35.47930        -0.10654
C         35.18623        37.56859        -0.23770
C         34.13268        38.32219         0.31231
C         35.60376        40.39835         0.77819
C         34.28254        39.74596         0.66552
C         35.70241        41.85581         1.24111
C         34.41674        42.63673         1.21683
C         34.38051        43.99901         1.17215
C         36.34642        25.59791        -1.70229
C         37.54893        27.76026        -1.85070
C         36.33001        26.99756        -1.69603
C         37.59192        29.12869        -1.64024
C         36.36560        29.85812        -1.37245
C         37.69310        31.83721        -0.76045
C         36.39128        31.17628        -0.97971
C         37.71512        33.30494        -0.46048
C         36.43192        34.05649        -0.46790
C         37.78957        35.99531         0.29557
C         36.47885        35.43607        -0.29656
C         37.91624        37.47982         0.62531
C         37.11069        38.47661         0.18544
C         36.84771        39.80627         0.71308
C         38.83017        29.87575        -1.71253
C         40.08272        32.00665        -1.49920
C         38.89689        31.19511        -1.33459
C         40.10248        33.35026        -1.25985
C         38.95760        34.07829        -0.74610
C         38.97024        35.41030        -0.45938
O         31.50249        29.13133         1.50531
O         25.10886        29.19019         3.38374
O         21.75872        56.60347        -3.54257
O         21.19882        16.06513         1.85333
O         29.53309        16.35685         0.67695
O         23.28675        59.56533        -3.23855
O         28.79443        40.08462         3.31216
O         21.04650        37.88072         2.49878
O         26.69334        47.65307         2.16797
O         24.25881        41.81450        -1.01958
O         37.86986        32.33329         0.63444
O         27.54963        37.99853         3.49566
O         25.84874        19.41304         2.39523
O         24.74432        37.99737         3.14082
O         19.33737        51.82364         0.58732
O         31.77751        33.52665        -1.73106
O         30.82295        18.91588        -2.24259
O         25.37140        11.78973         0.70414
O         13.43468        33.86102         2.41067
O         19.20044        16.54579        -1.30948
O         20.87719        28.06471         0.06568
O         13.95599        26.96333         2.72718
O         32.67602        42.22576         2.84124
O         16.81214        41.29546        -2.31770
O          9.09567        31.61024        -1.80238
O         30.45920        35.60184         2.89851
O         27.33637        39.31073         0.17668
O         11.88096        38.96610         0.78083
O         26.05871        50.08065        -1.75599
O         36.24522        38.19150        -0.89436
O         18.24350        19.78380        -0.75095
O         31.02581        26.25094        -1.90450
O         16.54332        38.67684         2.30161
O         18.87504        35.76071        -0.64205
O         16.51663        24.94442        -0.26894
O         18.44348        46.06215        -2.99099
H         17.94225        45.30528        -3.38847
O         22.55427        54.91688         0.51618
H         22.99344        54.39407         1.21921
O         22.53828        54.30499        -3.07851
H         22.33303        54.99089        -3.78240
O         27.25874        16.33507         2.13094
H         28.17911        16.63359         2.32098
O         24.30684        57.04901        -3.26579
H         23.83987        57.54997        -3.97115
O         10.39235        27.42929         2.90039
H          9.47033        27.74889         3.00406
O         29.77932        16.73831        -3.00548
H         30.53572        16.80236        -3.62537
O         26.33226        12.95235        -2.58629
H         27.05128        13.45233        -3.02872
O         14.38694        38.51223         1.33811
H         13.86937        37.86550         1.87723
O         15.82429        33.25202         3.16363
H         14.89954        33.28434         3.50826
O         13.42623        36.76701        -1.74909
H         13.88585        37.47780        -2.26421
O         18.53063        37.22720         2.61088
H         17.80374        37.65836         3.12562
O         29.70953        32.07504        -1.01910
H         30.36273        32.66502        -1.51401
O         17.63370         9.72123         0.76912
H         18.28060         9.93674         1.47210
O         19.41571        38.03688        -0.85187
H         19.95560        38.74516        -1.26709
O         25.69079        32.94440         0.00364
H         24.89413        32.43269        -0.25432
O         26.61597        52.59653         2.14278
H         27.33640        52.07866         2.56270
O         12.95279        36.40480         1.88179
H         12.92864        35.58772         2.44301
O         28.70508        13.87929         1.04894
H         29.41823        14.46018         1.39708
O         14.50797        29.45095        -0.55640
H         15.31020        29.91792        -0.87539
O         17.28118        43.63682        -3.08815
H         17.04459        42.72094        -3.38311
O         22.27359        51.71902        -2.41894
H         22.33942        52.52296        -3.00062
O         37.84193        35.39924         1.63544
H         37.88262        34.42129         1.54913
O         20.87756        41.05882        -1.59641
H         21.76066        40.63658        -1.72078
O         26.12464        24.35781         3.36410
H         25.35731        23.87117         3.75276
O         33.97285        34.47861        -2.19036
H         33.05986        34.24319        -2.53331
O         19.52594        42.77036         1.33840
H         18.81765        43.43430         1.47567
O         22.11817        40.33899         2.53172
H         21.53913        39.82108         3.13582
O         34.78243        29.39592        -3.09181
H         33.88625        29.04446        -3.28034
O         19.26558        33.22802        -0.64516
H         18.97444        33.98105        -1.21160
O         17.25294        17.53426         2.01871
H         16.43656        17.05857         2.28339
O         18.59294        33.52506         2.93678
H         17.75479        33.43377         3.44875
O         14.88700        38.98179        -2.21893
H         15.53474        39.61427        -2.60603
O         23.21667        39.41995        -0.80412
H         23.97267        39.75417        -1.34276
O         12.05619        22.20085         3.09300
H         12.87010        21.70720         3.33051
O          8.92510        31.39218         1.84956
H          9.55166        31.14507         2.56235
O         29.53891        43.63172        -0.62172
H         30.28941        43.02052        -0.78033
O         14.50476        34.51387        -0.88838
H         14.24292        35.20801        -1.54711
O         23.22456        24.18679         3.59844
H         23.40599        25.07432         4.01452
O         27.99648        18.47722        -1.83488
H         28.44044        18.10542        -2.63677
O         20.26036        48.58003         1.08834
H         20.85267        49.11318         1.66283
O         28.63684        23.11576         2.59284
H         27.90218        23.53411         3.10739
O         20.71818        22.87820         3.34269
H         21.55647        23.27415         3.69483
O         21.29824        44.35392        -2.33861
H         20.62619        44.86815        -2.83772
O         23.60553        48.70659        -2.01902
H         24.53797        49.00523        -2.16151
O         23.29375        20.44513        -0.84699
H         23.10307        21.38664        -1.04814
O         36.73231        42.53168         0.51194
H         36.52066        42.48015        -0.44240
O         17.43863        46.22734         0.54010
H         16.79116        46.77014         1.03760
O         28.75992        31.59441         3.23229
H         28.95661        30.64742         3.39855
O         23.61734        57.13422         0.27796
H         24.08563        56.85350         1.09201
O         24.98520        54.89927        -2.29482
H         24.95272        53.92692        -2.41915
O         27.65840         8.01505        -3.16977
H         27.19358         8.43132        -3.92415
O         12.10997        25.32889        -0.61074
H         12.29192        24.42800        -0.95729
O         25.60031        51.25319        -2.45685
H         24.64865        51.05258        -2.65828
O         20.05181        48.32235        -2.55749
H         19.52543        47.70895        -3.12235
O         18.16770        27.39538         3.28870
H         17.32447        27.83004         3.54250
O         16.73022        17.32627        -1.62086
H         17.61052        17.54514        -2.00492
O         27.93355        42.49361         3.25021
H         28.40979        41.88963         3.86929
O         16.66220        37.50014        -1.07942
H         17.35648        36.81343        -1.20424
O         31.16769        38.57141        -0.58225
H         31.93590        38.70023        -1.17788
O         26.57136        55.50446         1.86621
H         26.56938        54.58293         2.22871
O          7.52695        33.20022        -3.15151
H          8.05553        32.37208        -3.24603
O         29.10951        18.55750         1.68199
H         28.69035        18.97574         2.46478
O         21.85620        51.42329         1.23411
H         20.93145        51.76920         1.34863
O         24.49206        26.52242         3.87428
H         25.33466        26.05879         4.09940
H          5.03943        31.03333        -0.67604
H          5.17740        33.28566        -1.57893
H          7.41397        26.76125         0.23763
H          6.18375        28.88347        -0.00445
H          6.46066        35.44874        -1.91553
H          7.57687        37.61611        -1.72336
H          9.82484        22.55444         1.41272
H          8.60506        24.63632         0.65090
H          8.76481        39.81395        -1.66846
H         10.01047        42.04288        -1.71761
H         12.37995        18.27711         0.61709
H         11.12634        20.36600         1.02554
H         11.27458        44.18310        -1.57716
H         12.51949        46.28357        -1.42160
H         14.86040        14.03390         0.11601
H         13.63692        16.14395         0.55687
H         13.72440        48.39515        -1.26663
H         14.90103        50.56427        -1.33310
H         17.37326         9.97618        -1.25373
H         16.06568        11.92932        -0.20135
H         16.10427        52.77128        -1.42619
H         17.38567        55.03520        -1.43436
H         19.65390         5.68899        -1.92596
H         18.48268         7.71822        -1.19505
H         18.77070        57.12575        -1.02658
H         19.93983        59.20505        -1.50376
H         22.94239         2.51136        -3.39044
H         20.83364         3.65233        -2.72228
H         23.12488        62.58167        -1.80096
H         21.61712        60.99201        -3.12866
H         25.11835         3.72262        -3.30826
H         26.41539         5.79052        -2.81723
H         26.54535        59.45847        -0.43692
H         25.17845        61.57586        -0.71369
H         27.46522         7.77627        -1.14127
H         28.95939         9.93947        -1.97109
H         29.00621        55.18577         0.16114
H         27.71767        57.36852         0.10120
H         30.18603        12.09591        -1.88964
H         31.00238        14.33202        -2.43833
H         31.52422        50.95184         0.77515
H         30.27878        53.07304         0.34449
H         32.41705        16.22439        -0.93285
H         33.98982        18.63761        -1.14566
H         34.04536        46.71882         1.00886
H         32.76911        48.84572         0.95397
H         34.97737        20.74297        -1.47593
H         36.13392        22.90809        -1.67902
H         36.04150        41.84249         2.31620
H         35.32167        44.55089         1.02498
H         37.29503        25.06509        -1.86585
H         38.48149        27.21243        -2.05340
H         38.58274        37.68526         1.47637
H         37.70461        40.41704         1.04311
H         39.72638        29.37009        -2.10412
H         40.99086        31.51245        -1.87644
H         41.02885        33.91792        -1.43427
H         39.87230        36.01538        -0.63662
