         634
 CSIRO Nanostructure Databank - Neutral Graphene Oxide Data Set
C         23.07905        69.85057        -1.55459
C         23.05704        71.23093        -1.63660
C         21.85407        71.99014        -1.56025
C         23.09031        74.10311        -1.53232
C         21.88138        73.38032        -1.53813
C         25.55181        65.54689        -1.40898
C         25.53237        66.96345        -1.41651
C         24.32085        67.69421        -1.55618
C         25.55553        69.79920        -1.45489
C         24.31467        69.09717        -1.53979
C         25.55296        71.29401        -1.29859
C         24.33681        71.97011        -1.99819
C         25.54842        74.10407        -1.40481
C         24.32917        73.44264        -1.61075
C         28.10208        61.21641        -1.42415
C         28.00235        62.70734        -1.13371
C         26.79897        63.39837        -1.28165
C         27.96521        65.54881        -0.97395
C         26.75095        64.82415        -1.21988
C         27.96307        66.96938        -0.98309
C         26.76288        67.68611        -1.24814
C         28.01220        69.85271        -1.12121
C         26.76818        69.11503        -1.30945
C         28.07427        71.25759        -1.23503
C         26.84959        71.96476        -1.77649
C         27.97661        74.09086        -1.07216
C         26.80031        73.43247        -1.39956
C         30.36487        56.97705         0.00947
C         30.33724        58.40614         0.00827
C         29.21960        59.11337        -0.45603
C         30.35609        61.25966        -0.35506
C         29.23744        60.52707        -0.68383
C         30.49075        62.68076        -0.85621
C         29.18935        63.42792        -0.87067
C         30.39624        65.57121        -0.49247
C         29.18752        64.83938        -0.76967
C         30.38145        66.98445        -0.43399
C         29.17207        67.68940        -0.71526
C         30.38463        69.81525        -0.50785
C         29.17844        69.10848        -0.77150
C         30.45038        71.21585        -0.76534
C         29.29481        71.97723        -1.07219
C         30.33364        74.30461        -0.65947
C         29.26481        73.45759        -1.00192
C         32.76947        52.70016         0.56146
C         32.75230        54.11999         0.52793
C         31.56241        54.85095         0.31636
C         32.66884        56.99134         1.02507
C         31.50106        56.26450         0.38438
C         32.70658        58.48689         0.77857
C         31.53731        59.12974         0.41048
C         32.77206        61.34443         0.52298
C         31.46914        60.60177         0.35153
C         32.87078        62.71351        -0.06059
C         31.62537        63.46590        -0.25894
C         32.83949        65.59993         0.05194
C         31.62431        64.85149        -0.24738
C         32.79107        67.01462         0.20380
C         31.56450        67.72497        -0.05564
C         32.63062        69.94212         0.62805
C         31.53971        69.12811        -0.04438
C         32.83490        71.28933        -0.05142
C         31.77914        71.77273        -0.77454
C         32.80043        74.34650         0.05841
C         31.72115        73.93613        -0.69167
C         35.29612        48.45351         0.66018
C         35.23657        49.83256         0.83427
C         34.02012        50.56559         0.69913
C         35.26534        52.71673         0.44371
C         33.97020        51.96731         0.64779
C         35.19831        54.18462         0.77599
C         34.00155        54.84451         0.71219
C         35.19359        56.98198         1.35056
C         33.99741        56.35826         0.61114
C         35.21409        58.48734         1.16715
C         33.97428        59.19872         0.98312
C         35.19428        61.38543         1.12812
C         34.00395        60.59401         0.79719
C         35.29454        62.80316         0.75378
C         34.15000        63.47333         0.13074
C         35.26933        65.64874         0.48023
C         34.07052        64.93532         0.21361
C         35.23372        67.08650         0.52151
C         33.98779        67.73358         0.48976
C         35.24314        69.95121         0.64709
C         33.94681        69.18287         0.75077
C         35.23062        71.41207         0.39851
C         34.05172        72.08128         0.12023
C         35.18837        74.21834         0.55622
C         34.04373        73.56725         0.16302
C         37.76766        44.20383         0.33783
C         37.78617        45.59145         0.60033
C         36.55093        46.33139         0.64830
C         37.72847        48.39709         1.29583
C         36.50506        47.70572         0.82268
C         37.77870        49.87687         1.22718
C         36.47068        50.57092         1.21498
C         37.74775        52.78106         0.95668
C         36.46227        52.05828         1.08574
C         37.72452        54.15995         0.79684
C         36.46742        54.90951         0.82353
C         37.71353        57.05627         0.63051
C         36.46412        56.28122         0.91711
C         37.70311        58.48575         1.11966
C         36.46678        59.15535         1.23827
C         37.76309        61.35218         1.29872
C         36.50272        60.61770         1.43560
C         37.71168        62.83121         1.35701
C         36.46085        63.53777         0.95942
C         37.74741        65.73663         0.86965
C         36.47339        64.94149         0.71782
C         37.70911        67.06496         0.09352
C         36.46699        67.84473         0.43883
C         37.70714        69.99004        -0.05544
C         36.48034        69.21086         0.37455
C         37.68911        71.41187         0.47619
C         36.50323        72.08224         0.57405
C         37.74148        74.24270         0.52598
C         36.47413        73.53952         0.96113
C         40.22016        39.83822         0.07951
C         40.24572        41.35386         0.06093
C         39.04197        42.04542         0.08091
C         40.17092        44.22387         0.09236
C         38.96919        43.48353         0.18150
C         40.20505        45.62364         0.24418
C         39.03736        46.28851         0.68795
C         40.28284        48.44761         1.43554
C         39.03292        47.63936         1.31226
C         40.25588        49.86545         1.18851
C         38.96912        50.57057         1.11516
C         40.19039        52.72802         0.99084
C         38.98474        52.03573         1.02764
C         40.22192        54.16336         0.98403
C         38.96597        54.90755         0.89086
C         40.20568        57.02298         1.35985
C         38.95054        56.28068         0.96750
C         40.15876        58.49811         1.03779
C         38.95893        59.20043         1.10062
C         40.21118        61.39177         0.99481
C         38.96146        60.67333         1.11667
C         40.24398        62.80520         0.97251
C         39.00326        63.57214         1.16675
C         40.23102        65.67830         0.48432
C         38.94309        64.88786         0.42114
C         40.19210        67.08064         0.36299
C         38.99425        67.82486         0.28940
C         40.18734        69.97881         0.35138
C         38.99856        69.25152         0.24602
C         40.22019        71.41294         0.40536
C         38.96767        72.11970         0.88720
C         40.22023        74.37825         0.43030
C         38.92270        73.59635         0.53294
C         42.52253        36.06492        -2.17790
C         42.61483        37.28355        -1.51311
C         41.42692        37.96576        -1.07413
C         42.71532        39.92167        -0.38371
C         41.47131        39.21737        -0.50052
C         42.72984        41.28801         0.06719
C         41.50828        42.01950         0.13182
C         42.42509        44.28157         0.87992
C         41.50295        43.52827        -0.04600
C         42.65731        45.60084         0.71349
C         41.55699        46.28359        -0.05290
C         42.76554        48.44395         1.55692
C         41.46953        47.85017         1.85308
C         42.72196        49.87942         1.32683
C         41.46288        50.56238         1.19987
C         42.70668        52.75211         1.18010
C         41.48152        51.99743         0.74893
C         42.69358        54.16646         1.16906
C         41.43276        54.84929         1.00813
C         42.70563        57.02208         1.14426
C         41.42923        56.33506         0.75266
C         42.66118        58.49366         1.42646
C         41.46828        59.17325         0.71945
C         42.65178        61.34193         0.91485
C         41.45443        60.66827         0.93584
C         42.68547        62.78702         0.63935
C         41.42867        63.53884         0.73055
C         42.71454        65.68144         0.55857
C         41.45273        64.95719         0.57234
C         42.72491        67.08675         0.43355
C         41.46658        67.82584         0.06352
C         42.71989        69.94492         0.16021
C         41.47058        69.23558         0.63931
C         42.62290        71.36938        -0.34670
C         41.40386        72.10552         0.17950
C         42.68817        74.19860         0.22032
C         41.47855        73.54329         0.27429
C         44.85524        33.66717        -3.96231
C         43.68464        34.19118        -3.46682
C         45.10422        35.97067        -2.26243
C         43.70310        35.26392        -2.47902
C         45.08884        37.36510        -1.82522
C         43.89028        37.95442        -1.34237
C         45.15821        40.00279        -0.83890
C         43.91537        39.28674        -0.83396
C         45.21008        41.32544        -0.32308
C         44.03730        41.91291         0.22519
C         45.30670        44.01038         0.64972
C         44.22593        43.12984         0.89881
C         45.14275        45.51025         0.67063
C         43.93314        46.18685         1.36396
C         45.16475        48.41933         0.97259
C         43.93930        47.71519         1.30431
C         45.17367        49.87954         1.11890
C         43.93042        50.58772         1.26051
C         45.14089        52.73718         1.41771
C         43.94528        52.04439         1.27031
C         45.14275        54.19547         1.77095
C         43.89915        54.89863         1.31673
C         45.17985        57.04268         1.20352
C         43.91031        56.33102         1.24611
C         45.15637        58.47114         0.98970
C         43.96890        59.16134         1.08347
C         45.20798        61.38548         1.19910
C         43.92633        60.63584         1.15485
C         45.24179        62.85344         0.98976
C         43.98317        63.54793         0.66847
C         45.16470        65.72804         0.83011
C         43.95877        65.01926         0.75447
C         45.17934        67.12511         0.56561
C         43.93101        67.80225         0.41298
C         45.16003        69.87204        -0.27473
C         43.88757        69.23525         0.12312
C         45.16894        71.40306        -0.39405
C         43.92015        72.11686        -0.15033
C         45.19839        74.18293         0.09424
C         43.95284        73.49881         0.07459
C         46.12189        34.26784        -3.73583
C         47.43382        36.25713        -3.06474
C         46.24747        35.47378        -3.03925
C         47.49396        37.52151        -2.46529
C         46.29915        38.10006        -1.89297
C         47.57956        40.13515        -1.30223
C         46.33905        39.41943        -1.36700
C         47.62974        41.40101        -0.70950
C         46.44170        42.04845        -0.27720
C         47.69745        44.20284        -0.07107
C         46.45703        43.43858         0.07515
C         47.67911        45.65864         0.09400
C         46.36663        46.31970         0.33660
C         47.50560        48.53847         0.03964
C         46.34087        47.76854         0.62397
C         47.56190        49.99636         0.47179
C         46.35202        50.60059         1.04504
C         47.66056        52.77060         1.31580
C         46.41316        51.98096         1.63938
C         47.64984        54.18914         1.33853
C         46.41501        54.92070         1.40632
C         47.67738        56.98351         0.77824
C         46.39427        56.30993         1.21951
C         47.69958        58.48091         0.92191
C         46.41822        59.19588         0.53001
C         47.63739        61.32354         1.00975
C         46.46701        60.64871         0.96254
C         47.66548        62.78394         1.28524
C         46.40322        63.53678         1.11010
C         47.69573        65.68711         0.74079
C         46.43668        65.04157         1.28016
C         47.66938        67.07108         0.40614
C         46.42791        67.80598         0.35111
C         47.63119        69.90633        -0.19575
C         46.43912        69.18946        -0.01330
C         47.65417        71.34245        -0.26456
C         46.45059        72.08459        -0.22361
C         47.68788        74.18432        -0.04744
C         46.44569        73.50646        -0.04779
C         48.70311        38.29471        -2.46633
C         49.97778        40.35554        -1.92309
C         48.77118        39.55189        -1.88863
C         50.06883        41.56777        -1.29190
C         48.95236        42.03090        -0.38067
C         50.19605        44.22248         0.00413
C         48.88142        43.52783        -0.25789
C         50.11294        45.67887        -0.46474
C         48.84101        46.40067        -0.05542
C         50.04436        48.57537         0.08396
C         48.85865        47.84288         0.09788
C         50.13500        49.96215         0.50290
C         48.86540        50.70171         0.65890
C         50.11036        52.76414         1.27911
C         48.87529        52.08537         1.18066
C         50.11851        54.15305         1.39851
C         48.90579        54.88117         1.30563
C         50.13726        57.01542         1.35506
C         48.93803        56.31192         1.25570
C         50.13876        58.51981         1.51922
C         48.86704        59.16033         1.01052
C         50.16809        61.35082         0.73435
C         48.87859        60.60100         0.56121
C         50.14781        62.73122         0.70155
C         48.94696        63.52417         1.05398
C         50.12064        65.64335         0.41773
C         48.90420        64.97039         0.70370
C         50.10169        67.04536         0.22572
C         48.89606        67.74161         0.14219
C         50.16684        69.90638        -0.17440
C         48.89909        69.13638        -0.44077
C         50.14983        71.33148        -0.23469
C         48.90768        72.04585        -0.24497
C         50.15786        74.16693        -0.20556
C         48.91448        73.48071        -0.17592
C         51.28130        42.36238        -1.30559
C         52.72293        44.27014        -0.58451
C         51.38036        43.57170        -0.69423
C         52.65830        45.78341        -0.53053
C         51.41022        46.42511         0.06879
C         52.58204        48.64572        -0.13781
C         51.30328        47.92588        -0.41880
C         52.60038        49.96630         0.37289
C         51.33856        50.61312         0.71626
C         52.62254        52.77983         1.09029
C         51.38396        51.96702         1.42179
C         52.62774        54.14189         1.19851
C         51.40558        54.85705         1.73506
C         52.59900        57.02759         1.28746
C         51.38820        56.33593         1.44540
C         52.59470        58.45485         1.01034
C         51.41737        59.17424         1.02751
C         52.62136        61.28994         0.65241
C         51.41493        60.61001         0.74063
C         52.64754        62.67260         0.18943
C         51.32857        63.45794         0.25423
C         52.57931        65.56472         0.02564
C         51.37920        64.92654         0.29021
C         52.55779        67.02647        -0.36753
C         51.42022        67.76486         0.32616
C         52.61525        69.90482        -0.12186
C         51.37353        69.22148        -0.05421
C         52.61927        71.32279        -0.21448
C         51.38632        72.03683        -0.22238
C         52.63302        74.15455        -0.33212
C         51.38890        73.47668        -0.25416
C         53.74997        46.54306        -0.78961
C         54.98991        48.67792        -0.43833
C         53.78343        47.97428        -0.48220
C         55.02555        50.03211        -0.01369
C         53.82914        50.65785         0.43444
C         55.10369        52.84005         0.65140
C         53.92247        52.01258         1.08777
C         55.10025        54.21347         0.83320
C         53.86285        54.91285         1.12869
C         55.13328        57.04515         1.53714
C         53.84718        56.29755         1.26462
C         55.14034        58.45033         1.00446
C         53.88627        59.14510         0.57106
C         55.14929        61.34790         0.65144
C         53.89693        60.61005         1.07328
C         55.12323        62.75136         0.32557
C         53.88854        63.45663         0.21317
C         55.07131        65.58758        -0.04774
C         53.83912        64.85106         0.02412
C         55.07631        67.02908        -0.09764
C         53.86211        67.75510        -0.14128
C         55.10100        69.87748        -0.15678
C         53.86007        69.16515        -0.11682
C         55.09702        71.31087        -0.27679
C         53.86369        72.02474        -0.28697
C         55.10660        74.12899        -0.51794
C         53.85590        73.45336        -0.37108
C         56.24634        50.77031        -0.05830
C         57.48762        52.89161         0.03111
C         56.29960        52.14796         0.21879
C         57.54711        54.27412         0.30055
C         56.33637        54.98317         0.72298
C         57.70574        57.03128         1.24568
C         56.37865        56.31391         1.06183
C         57.66084        58.51631         0.92636
C         56.38407        59.25576         1.26993
C         57.58752        61.34558         0.45019
C         56.35546        60.66789         0.72269
C         57.57964        62.74598         0.16537
C         56.33071        63.45882         0.11712
C         57.52909        65.61667        -0.12385
C         56.29964        64.88487        -0.05869
C         57.54026        66.99896        -0.00944
C         56.31490        67.73441        -0.03291
C         57.57304        69.88245        -0.21777
C         56.32610        69.16525        -0.11660
C         57.57133        71.29184        -0.39814
C         56.32612        72.01315        -0.42280
C         57.56967        74.20318        -0.86941
C         56.30228        73.43598        -0.57303
C         58.74041        54.98931         0.13928
C         60.01671        57.05918         0.31915
C         58.85636        56.35591         0.52276
C         60.14214        58.46220         0.84488
C         58.81855        59.19836         0.70166
C         60.03006        61.31294         0.19220
C         58.82562        60.63681         0.46369
C         60.02424        62.72465        -0.04537
C         58.79679        63.42611        -0.05146
C         60.05537        65.59427        -0.24257
C         58.77210        64.86042        -0.50832
C         60.07184        66.99079        -0.09404
C         58.81770        67.73164         0.31847
C         60.02170        69.87186        -0.14101
C         58.81558        69.18480        -0.09936
C         60.04376        71.28625        -0.35530
C         58.81562        71.99599        -0.48634
C         60.04641        74.09374        -0.68405
C         58.84379        73.42069        -0.65381
C         61.31174        59.20636         0.27983
C         62.47783        61.29594        -0.22652
C         61.28762        60.58043         0.08213
C         62.49569        62.70685        -0.33078
C         61.25804        63.42907        -0.26192
C         62.50836        65.56420        -0.35802
C         61.27133        64.86213        -0.31306
C         62.51502        66.98617        -0.28969
C         61.29042        67.68670        -0.10798
C         62.54785        69.85917        -0.24417
C         61.30210        69.15701         0.22842
C         62.53306        71.26363        -0.41344
C         61.28779        71.98538        -0.42718
C         62.51935        74.09250        -0.71986
C         61.29678        73.40134        -0.59738
C         63.71318        63.42062        -0.47377
C         64.96028        65.55429        -0.54708
C         63.74743        64.83484        -0.46429
C         64.98343        66.97266        -0.52349
C         63.75606        67.69736        -0.37278
C         64.98453        69.82934        -0.59737
C         63.75801        69.13146        -0.38803
C         64.98612        71.25031        -0.68338
C         63.75571        71.96682        -0.61833
C         64.98243        74.08043        -0.90641
C         63.75456        73.39910        -0.74557
C         66.19888        67.68795        -0.65805
C         67.43077        69.81681        -0.87240
C         66.22136        69.10110        -0.70812
C         67.44611        71.22896        -0.94917
C         66.21359        71.95316        -0.86467
C         67.44876        74.06034        -1.13513
C         66.21087        73.38117        -0.96600
C         68.65727        71.95470        -1.11913
C         68.64480        73.34656        -1.20639
O         31.98602        72.88412        -1.59379
O         41.68508        47.18629        -0.85750
O         45.11570        70.50797        -1.59278
O         35.65663        61.11707         2.50681
O         43.43837        63.07523        -0.62721
O         43.19627        43.52854         1.76046
O         33.79319        62.84356        -1.20453
O         38.21786        47.74639         2.53842
O         48.12732        50.78946        -0.65776
O         44.55470        35.01908        -1.31645
O         38.42006        63.47223         2.49958
O         51.84763        62.91350        -1.01419
O         48.47131        63.22859         2.43775
O         45.33911        45.98208        -0.69219
O         44.52966        61.06620         2.47608
O         36.24213        51.45973         2.39052
O         24.43894        71.87610        -3.39506
O         31.80559        61.27865         1.63175
O         51.42665        46.37159         1.42134
O         34.66004        69.58391         1.97087
O         39.01797        72.05883         2.35175
H         38.22688        72.55886         2.67543
O         32.13903        70.18680         1.97648
H         32.93570        70.20849         2.55770
O         34.14854        56.66906        -0.79694
H         35.06376        56.43139        -1.06320
O         42.43357        71.26246        -1.80013
H         43.26335        70.86048        -2.15636
O         47.20555        48.53541        -1.39408
H         47.54961        49.38959        -1.74905
O         58.68284        64.78414        -1.99002
H         59.45375        64.26152        -2.29936
O         46.34965        59.18428        -0.93390
H         47.13940        59.69815        -1.24896
O         26.98094        71.85903        -3.20575
H         26.05434        71.92744        -3.59762
O         54.18611        51.70607         2.52664
H         54.43976        52.54980         2.95983
O         57.60197        75.43489        -0.13435
H         57.65052        75.21941         0.81939
O         46.49686        65.23890         2.73440
H         47.23340        64.66632         3.06058
O         28.35386        61.07470        -2.83604
H         29.20753        61.53151        -3.02080
O         50.11388        58.75364         2.97034
H         50.88550        58.28665         3.35709
O         38.76302        64.45810        -0.95736
H         38.34464        65.20714        -1.45298
O         48.91938        68.92833        -1.90589
H         48.04539        68.56534        -2.16459
O         41.59941        51.93977        -0.73241
H         42.32442        51.31144        -0.94119
O         41.40578        46.68807         2.57107
H         40.46671        46.48079         2.76678
O         53.86403        59.23431        -0.88958
H         53.87727        58.32221        -1.24781
O         58.86705        67.75814         1.78686
H         59.66699        68.28902         2.03191
O         37.91260        66.11235         2.25098
H         37.98578        65.27851         2.77724
O         44.01334        45.80514         2.74676
H         43.17081        46.06138         3.18339
O         37.75086        57.18984        -0.86019
H         38.69303        57.13111        -1.13539
O         35.11374        56.73091         2.77780
H         34.17520        56.86802         3.05662
O         37.61563        66.79648        -1.35563
H         38.24315        67.39348        -1.81687
O         41.72327        59.01409        -0.70784
H         40.97658        59.41343        -1.20104
O         41.55216        69.11573         2.08589
H         41.21526        69.94519         2.48614
O         55.21691        57.10258         3.02083
H         55.14461        56.18006         3.34726
O         50.38757        44.15630         1.42584
H         50.27171        43.21683         1.69649
O         39.04541        39.33437        -0.55809
H         39.07002        39.59649        -1.50075
O         61.33471        69.21051         1.71994
H         62.17935        68.79915         2.00496
O         51.19736        47.90055        -1.88262
H         51.16265        48.83195        -2.18730
O         51.76081        67.73961         1.74800
H         51.04007        68.18093         2.24432
O         40.33482        56.89314         2.80516
H         39.65237        57.45447         3.22928
O         32.48943        56.80785         2.46521
H         31.68255        57.29708         2.73190
O         51.48874        51.68962         2.86156
H         52.40375        51.33894         3.01273
O         30.87631        62.53472        -2.29195
H         31.85962        62.52405        -2.34057
O         42.42542        58.69160         2.84981
H         43.22821        58.41434         3.33903
O         50.13986        45.57814        -1.88965
H         50.11918        46.48761        -2.27183
O         53.90235        60.52749         2.53525
H         53.81835        61.43559         2.89497
O         46.49454        51.78490         3.10804
H         46.22158        52.64572         3.51473
O         40.14995        75.33504        -0.63604
H         40.11935        74.84546        -1.48359
O         35.53886        52.65586        -0.99749
H         34.79159        53.09036        -1.46088
O         41.48769        67.96422        -1.39226
H         41.66581        67.07955        -1.77559
O         25.44256        71.56523         0.12170
H         24.71279        71.01961         0.48328
O         60.38639        58.35722         2.29101
H         59.61398        57.85914         2.66968
O         45.10757        54.21972         3.28181
H         44.20002        53.95577         3.55005
O         57.99555        56.96618         2.68665
H         57.29659        57.52238         3.11822
O         56.45111        59.40569         2.74319
H         55.54191        59.68060         3.02740
O         36.52136        73.58491         2.44044
H         35.70497        73.15022         2.76896
O         47.70232        56.78691        -0.68603
H         47.04636        57.42648        -1.06535
O         37.61810        70.11589        -1.51682
H         37.38089        69.23726        -1.88189
O         52.29234        67.06352        -1.79583
H         52.95547        66.50049        -2.24686
O         48.74596        60.53354        -0.92338
H         49.61393        60.25304        -1.28811
O         49.32862        41.54505         0.96949
H         49.41863        40.56924         0.91156
O         51.53792        54.72231         3.19853
H         51.43069        53.76009         3.39767
O         41.27762        56.46989        -0.69995
H         42.08962        56.11951        -1.12351
O         53.61865        43.83111        -1.60729
H         53.28121        44.16062        -2.46532
O         42.02420        43.79066        -1.38696
H         41.38280        43.43221        -2.03551
H         23.06128        75.20015        -1.43978
H         25.53270        75.17641        -1.14348
H         27.93379        75.17377        -0.86766
H         30.07763        75.33312        -0.35615
H         32.71797        75.24691         0.68617
H         35.14831        75.30922         0.70398
H         37.70663        75.32762         0.34088
H         40.31997        74.97712         1.37762
H         42.70681        75.29585         0.29602
H         45.20157        75.27526         0.22361
H         47.70583        75.27949         0.04961
H         50.15971        75.26698        -0.18767
H         52.64272        75.25379        -0.38166
H         55.11728        75.22481        -0.61347
H         57.53471        74.49699        -1.95750
H         60.04904        75.18643        -0.81029
H         62.51255        75.18632        -0.83603
H         64.98168        75.17720        -0.99460
H         67.45429        75.15704        -1.21107
H         22.13283        69.29404        -1.45449
H         20.89083        71.46234        -1.47925
H         20.93316        73.93337        -1.47373
H         24.61062        64.99800        -1.56306
H         23.37176        67.14687        -1.65620
H         27.12908        60.70816        -1.20724
H         25.87424        62.84366        -1.50153
H         29.49178        56.43400        -0.38431
H         28.32430        58.54715        -0.75402
H         31.81035        52.15908         0.56083
H         30.64738        54.29975         0.04706
H         34.38468        47.90888         0.36930
H         33.07945        49.99731         0.62176
H         36.80368        43.67531         0.30808
H         35.62172        45.78884         0.41659
H         40.15588        39.51551         1.15807
H         38.10561        41.46816         0.06540
H         41.53449        35.68851        -2.48426
H         40.45720        37.45469        -1.17026
H         44.80674        32.81343        -4.65387
H         42.71391        33.82938        -3.83629
H         47.00137        33.85454        -4.25062
H         48.32205        35.85895        -3.57811
H         49.59961        37.86405        -2.93738
H         50.83372        39.97910        -2.50476
H         52.16743        41.94376        -1.81060
H         53.16912        43.93646         0.39636
H         54.68330        46.06843        -1.13290
H         55.92805        48.17998        -0.72467
H         57.15940        50.25963        -0.39943
H         58.39663        52.37401        -0.31034
H         59.62654        54.47628        -0.26448
H         60.88054        56.57303        -0.16072
H         62.26190        58.66228         0.16279
H         63.42568        60.74179        -0.29839
H         64.65744        62.86034        -0.53954
H         65.90784        65.00470        -0.64675
H         67.14230        67.13084        -0.75651
H         68.37785        69.26213        -0.94792
H         69.60784        71.40609        -1.18284
H         69.59185        73.88909        -1.33717
