         276
 CSIRO Nanostructure Databank - Neutral Graphene Oxide Data Set
C        -10.37913         0.12776        -1.87191
C         -9.28883         1.02259        -1.31344
C         -8.06418         0.18409        -0.92546
C         -6.80598         0.90770        -0.59223
C         -5.81863         0.33048         0.38762
C         -4.90886         1.28275         1.10530
C         -3.75928         0.66137         1.83796
C         -2.43004         1.35131         1.67725
C         -1.17457         0.64235         2.09668
C          0.08219         1.43811         2.33284
C          1.39964         0.71076         2.23543
C          2.49481         1.44973         1.50453
C          3.73895         0.73410         1.06549
C          5.00470         1.54917         0.79921
C          6.00340         0.75198        -0.05510
C          7.16588         1.50445        -0.61365
C          8.47820         0.80300        -0.77109
C          9.65496         1.58681        -1.26003
C         10.81026         0.80685        -1.78405
C         -8.86312         2.16234        -2.23364
C         -7.75117         2.85693        -1.92010
C         -6.70152         2.35576        -0.97162
C         -6.10773         3.34944         0.00307
C         -4.99502         2.77643         0.82556
C         -3.69527         3.53251         0.87038
C         -2.42038         2.81907         1.24654
C         -1.05673         3.54574         1.26846
C          0.02065         2.96938         2.20353
C          1.31840         3.72693         2.09532
C          2.43105         2.96647         1.41162
C          3.53638         3.69701         0.70822
C          4.73166         2.92498         0.19045
C          5.88447         3.65611        -0.41865
C          7.30696         3.03949        -0.33531
C          8.29630         3.68202        -1.31013
C          9.41551         3.00317        -1.65568
C         -6.64667         3.55033        -2.69733
C         -6.15350         4.82026        -2.05941
C         -6.14347         4.80869        -0.53104
C         -4.93639         5.64913         0.01239
C         -3.75729         5.03290         0.72461
C         -2.46473         5.81033         0.73206
C         -1.17788         5.11034         1.13859
C         -0.01992         5.96389         1.61244
C          1.28108         5.24411         1.87598
C          2.56952         5.95028         1.54803
C          3.70697         5.17645         0.95138
C          4.69454         5.88819         0.06914
C          5.82195         5.15442        -0.57326
C          7.05134         5.90087        -0.97163
C          8.05361         5.11009        -1.80303
C         -5.79571         5.93338        -2.71588
C         -5.50825         7.23231        -1.97400
C         -4.77643         6.99951        -0.63065
C         -3.58056         7.88548        -0.23701
C         -2.50303         7.28904         0.55599
C         -1.18322         8.00587         0.44787
C         -0.13796         7.49968         1.43014
C          1.21349         8.20479         1.32464
C          2.50403         7.44774         1.37449
C          3.66635         8.15121         0.73656
C          4.78801         7.38114         0.15021
C          6.16508         8.01859         0.11086
C          7.14804         7.23268        -0.75383
C         -4.74923         8.14720        -2.90451
C         -3.66380         8.85387        -2.57321
C         -3.22164         9.08664        -1.14210
C         -1.72637         9.39487        -1.00633
C         -1.35423         9.55174         0.47049
C         -0.04558        10.38461         0.69594
C          1.25849         9.61353         0.81605
C          2.43864        10.26555         0.67912
C          3.79643         9.64428         1.01031
C          4.94162        10.20691         0.18471
C          5.99942         9.48815        -0.22753
C        -10.53046        -1.15463        -1.49782
C         -9.57343        -1.87232        -0.61597
C         -8.24092        -1.19916        -0.33895
C         -7.50813        -1.50026         0.96813
C         -6.04469        -1.02567         0.97000
C         -5.19327        -1.49920         2.14530
C         -3.79103        -0.82771         2.17547
C         -2.51050        -1.57730         2.39920
C         -1.18237        -0.82457         2.47790
C          0.12301        -1.54259         2.30427
C          1.44531        -0.80188         2.18332
C          2.72579        -1.49507         1.82043
C          3.96563        -0.68071         1.52511
C          5.22235        -1.41085         1.15180
C          6.10579        -0.74685         0.14109
C          7.27665        -1.47083        -0.42528
C          8.38174        -0.67073        -1.08190
C          9.61356        -1.36065        -1.55549
C         10.82729        -0.54183        -1.80992
C         -9.96132        -2.95560         0.24492
C         -8.93401        -3.67848         1.02116
C         -7.66616        -2.97292         1.39299
C         -6.43846        -3.78048         1.79414
C         -5.15250        -3.06627         2.16541
C         -3.82650        -3.90194         2.27080
C         -2.47488        -3.09378         2.27963
C         -1.17014        -3.75691         1.87321
C          0.06759        -2.89637         1.65227
C          1.32763        -3.48997         1.07630
C          2.69423        -2.79526         1.01450
C          3.93834        -3.65869         1.27724
C          5.26833        -2.93272         1.24254
C          6.52256        -3.66245         0.75062
C          7.73867        -2.80360         0.22193
C          8.63311        -3.52520        -0.80137
C          9.61037        -2.84107        -1.46487
C         -8.96718        -5.21014         1.00196
C         -7.60707        -5.79382         0.67195
C         -6.36957        -5.28441         1.40953
C         -5.10165        -5.48937         0.55415
C         -3.80759        -5.08470         1.23562
C         -2.51701        -5.72321         0.79796
C         -1.15245        -5.21744         1.32722
C          0.00903        -5.58070         0.38337
C          1.32386        -4.92076         0.58672
C          2.52720        -5.79712         0.79585
C          3.88755        -5.14752         0.98721
C          5.13966        -5.91903         0.63343
C          6.40402        -5.12620         0.33997
C          7.28223        -5.61127        -0.75883
C          8.36165        -4.89963        -1.17769
C         -7.52823        -6.86264        -0.14225
C         -6.23353        -7.60925        -0.32740
C         -5.07939        -6.61408        -0.42955
C         -3.77984        -7.13038        -0.99242
C         -2.49918        -6.65198        -0.40376
C         -1.30484        -7.54931        -0.57359
C         -0.01012        -7.00568        -0.10857
C          1.05089        -8.02643         0.32936
C          2.42081        -7.28649         0.53469
C          3.65817        -7.99584         0.02105
C          5.00611        -7.33357         0.09521
C          6.21004        -7.88884        -0.66784
C          6.82624        -6.81299        -1.56447
C         -6.23036        -8.58316        -1.47855
C         -5.10040        -9.00429        -2.05745
C         -3.71959        -8.48413        -1.73038
C         -2.89246        -9.50344        -0.87792
C         -1.46127        -9.01985        -0.73957
C         -0.33615        -9.77892        -0.83494
C          1.00275        -9.18916        -0.65591
C          2.13930        -9.67895        -1.20208
C          3.41667        -8.86464        -1.21550
C          4.64848        -9.65172        -1.58821
C          5.88418        -9.16971        -1.40567
O         -2.99977        -6.08437        -1.64915
O         -6.23201         3.25569         1.43423
O          1.99290         8.10024         2.57948
O          2.33242        -1.42435         3.19592
O         -6.08798        -3.54462         3.17521
O         -8.74257        -3.12075         2.37281
O          3.73012         5.54962         2.35506
O         -0.29528        -7.02770        -1.52137
O         -0.95097         8.12228        -1.03271
O          6.02624        -1.50497        -1.13010
O         -2.87754         2.90207        -0.16081
O         -5.35158        -5.23322        -0.85105
O         -1.46565         5.36508        -0.26728
O          9.44596         1.26209         0.18487
O         -5.21705        -0.88788        -0.20575
O          4.90018         3.00975        -1.24802
O          3.75302         7.94903        -0.71379
O         -0.44179        -1.30714         3.62118
O          8.47650        -2.37677         1.30676
O         -4.84390         1.25210         2.58814
O         -3.28505        -6.29618         1.89659
O         -8.24812        -2.23732        -1.31355
O          5.08689        -0.77760         2.45844
O          4.67041        -3.36867         2.48700
O         -4.92251         8.05163         0.33902
O         -6.95613         0.15507        -1.84496
O         -1.59729         0.64352         0.68835
O          2.39355        -6.77674         1.87533
O          0.62109        -4.84432        -0.70843
O          2.63390         0.86634         0.15255
O          7.76624         3.18387         0.94718
O          6.12108         1.08412        -1.47778
O          0.67204         3.49676         3.38014
O         -4.82165         5.67932         1.45657
O         -5.73584         2.51052        -2.13817
O         -3.29345        -1.07969         3.53324
O          2.31692         3.38221        -0.00507
O          4.68635        -5.83461         1.99446
O         -1.57607        -3.69343         3.26200
O          7.04444        -4.71003         1.58305
O          0.47591         5.79311         2.96299
O          4.62303         5.50521        -1.34038
O          0.38199        -2.69880         0.25105
O          4.58618        -8.37642         1.05273
O          0.61597        -8.51272         1.54431
O          8.50959        -0.94291        -2.49898
O          0.87503         1.13124         3.51175
O         -7.30082         5.46291        -0.13812
O         -3.01659        -8.31045        -2.96824
H         -2.66965        -7.38640        -2.99007
O         -9.77996         1.56910        -0.06506
H        -10.41569         2.28898        -0.25760
O         -9.95411        -5.65298         0.07423
H         -9.67065        -5.40526        -0.83004
O         -0.81275        -6.03998         2.45560
H         -1.64440        -6.34995         2.88281
O         -8.16297        -0.66267         1.93291
H         -7.73274        -0.80781         2.80942
O         -3.48659        -9.55548         0.41737
H         -2.97672       -10.17289         0.98013
O         -0.72909         7.97646         2.67171
H         -0.13982         7.65865         3.39753
O         -2.37626        10.01229         1.33113
H         -2.15632         9.73086         2.24479
O         -6.78818         7.78326        -1.62308
H         -7.21508         7.11228        -1.01496
O         -0.40696         3.14882         0.03919
H         -1.06136         3.21301        -0.69500
O          3.21036        -7.85346        -2.25665
H          3.04920        -8.31299        -3.10712
O         -6.24201        -6.06620         2.60638
H         -5.69754        -5.54681         3.25123
O          5.59464         1.82215         2.07939
H          5.74216         0.96886         2.55808
O          7.54327         5.04570        -3.14635
H          6.61374         4.73463        -3.11576
O          6.66195         7.91808         1.47345
H          7.47593         8.45710         1.55275
O         -3.93622        10.25348        -0.71357
H         -4.79344         9.95089        -0.33577
O          7.21635        -8.20049         0.31571
H          6.76522        -8.64535         1.06665
O         -6.01114        -8.38541         0.87746
H         -6.06872        -7.77996         1.65563
O         -3.92596        -4.52124         3.55736
H         -3.01177        -4.64927         3.90655
O         -5.87117        -1.07766         3.32850
H         -5.27384        -1.23700         4.09349
O          2.87135        -2.39553        -0.36618
H          1.99170        -2.17006        -0.74825
O          5.81221        -6.36883        -2.47369
H          6.20057        -5.71169        -3.08679
O          0.07815        11.38013        -0.32039
H          0.59730        11.01509        -1.06560
O          4.08099         9.90577         2.39460
H          3.39713         9.43732         2.92813
H         11.73978        -1.07180        -2.12138
H         11.71333         1.36916        -2.06660
H         10.17061         3.47856        -2.30205
H          9.02717         5.65927        -1.85174
H          8.05139         7.76555        -1.09530
H          6.80089         9.98107        -0.80098
H          4.89743        11.28164        -0.05412
H          2.41569        11.33176         0.39978
H         -0.19724        10.93237         1.66469
H         -1.35098        10.13559        -1.74719
H         -3.16360         9.46432        -3.34149
H         -5.09090         8.15062        -3.95174
H         -5.87945         5.98424        -3.81338
H         -6.68106         3.56294        -3.80974
H         -9.46379         2.39615        -3.12605
H        -11.12935         0.58383        -2.53703
H        -11.39106        -1.73364        -1.86798
H        -11.01073        -3.27920         0.30857
H         -9.27726        -5.57364         2.01442
H         -8.44823        -7.26527        -0.59542
H         -7.19779        -9.00849        -1.78811
H         -5.14583        -9.74824        -2.86734
H         -2.91581       -10.51733        -1.36529
H         -0.41082       -10.84981        -1.08348
H          2.09621       -10.56367        -1.85942
H          4.50567       -10.61663        -2.10073
H          6.75290        -9.76098        -1.73553
H          7.69719        -7.23433        -2.13757
H          8.97808        -5.31406        -1.99327
H         10.28249        -3.38759        -2.14702
