         410
 CSIRO Nanostructure Databank - Neutral Graphene Oxide Data Set
C         27.92434        27.40622         1.26685
C         27.90166        28.82642         1.14983
C         26.67521        29.55051         1.14147
C         27.84868        31.67209         0.84042
C         26.65405        30.92457         0.98820
C         27.84008        33.12405         0.72046
C         26.65355        33.89210         0.83110
C         27.86819        35.99418         0.49716
C         26.66575        35.27035         0.69389
C         27.87094        37.45425         0.31732
C         26.65502        38.19444         0.30978
C         27.83636        40.30702        -0.04350
C         26.64286        39.56655         0.15759
C         27.84417        41.74614        -0.16152
C         26.63809        42.50522        -0.14338
C         27.87900        44.58811        -0.35012
C         26.65351        43.87989        -0.23761
C         27.90611        46.01021        -0.45677
C         30.36132        27.38054         1.08558
C         29.11195        26.71131         1.23866
C         30.36139        28.79681         0.96609
C         29.12654        29.52802         1.01507
C         30.30753        31.65408         0.68452
C         29.09617        30.96224         0.85828
C         30.28937        33.05530         0.28740
C         29.04932        33.83112         0.48909
C         30.36424        35.96053         0.43358
C         29.06907        35.24431         0.42830
C         30.36127        37.48726         0.27485
C         29.06480        38.16891         0.10022
C         30.28843        40.28633        -0.35704
C         29.06732        39.58525        -0.12152
C         30.31521        41.69774        -0.37062
C         29.08330        42.43413        -0.27906
C         30.34092        44.57244        -0.47129
C         29.10486        43.86295        -0.36470
C         30.34825        45.99852        -0.57954
C         29.09386        46.68895        -0.57248
C         32.86714        24.58047         1.31971
C         31.66852        25.26869         1.30365
C         32.84597        27.35925         0.82689
C         31.62099        26.66600         1.07112
C         32.82642        28.80238         0.69528
C         31.60789        29.48706         0.83067
C         32.89968        31.70817         0.73367
C         31.58232        30.95713         0.88359
C         32.89564        33.11989         0.34127
C         31.62507        33.79876         0.10018
C         32.82030        35.95714         0.04096
C         31.61961        35.25921         0.17175
C         32.76973        37.38917        -0.22225
C         31.59770        38.11392        -0.20401
C         32.79203        40.30226        -0.53916
C         31.52152        39.52196        -0.77382
C         32.80698        41.70114        -0.48338
C         31.55722        42.42400        -0.46281
C         32.81354        44.55951        -0.53384
C         31.57233        43.84200        -0.48917
C         32.82538        45.98602        -0.56260
C         31.58698        46.70205        -0.66139
C         32.81440        48.81204        -0.85376
C         31.65435        48.11884        -0.95341
C         35.44558        23.04900         0.96843
C         35.37872        24.50342         1.15859
C         34.08627        25.24356         1.05846
C         35.30519        27.29323         0.30973
C         34.07179        26.62397         0.80099
C         35.25237        28.77989         0.03584
C         34.05336        29.54127         0.44956
C         35.36770        31.66387         0.32413
C         34.11742        30.92595         0.46750
C         35.36585        33.11485         0.31767
C         34.09824        33.82372         0.22653
C         35.30646        35.94579        -0.12857
C         34.07245        35.23481        -0.00550
C         35.27800        37.32440        -0.34724
C         34.03677        38.04449        -0.60375
C         35.28250        40.31199        -0.41403
C         34.04674        39.57940        -0.66307
C         35.28937        41.70605        -0.44823
C         34.05304        42.42379        -0.51638
C         35.26926        44.58349        -0.67435
C         34.05429        43.85674        -0.55504
C         35.29008        46.00391        -0.62560
C         34.06445        46.69243        -0.53048
C         35.33398        48.89431        -0.45673
C         34.02575        48.16973        -0.22545
C         35.36726        50.28411        -0.38786
C         37.90756        23.06608         0.73131
C         36.63317        22.39307         0.86604
C         37.90424        24.48403         0.59318
C         36.68617        25.25363         0.89420
C         37.82403        27.32309         0.17456
C         36.63176        26.65598         0.44847
C         37.84329        28.77012        -0.15474
C         36.54152        29.52728        -0.15350
C         37.85611        31.62674         0.32621
C         36.56118        30.96623         0.16649
C         37.86531        33.15628         0.35364
C         36.56707        33.83229         0.20879
C         37.80830        35.91443        -0.18118
C         36.57830        35.24334        -0.02143
C         37.78800        37.36877        -0.41420
C         36.51300        38.08324        -0.12656
C         37.80415        40.32818        -0.06108
C         36.50365        39.57702        -0.07737
C         37.78055        41.75859        -0.41707
C         36.56238        42.40961        -0.52311
C         37.84593        44.59674        -0.80836
C         36.52227        43.83673        -0.86220
C         37.79172        46.06513        -0.63931
C         36.55757        46.73981        -0.62349
C         37.80224        48.89128        -0.51859
C         36.56019        48.17410        -0.54679
C         37.80745        50.31591        -0.39401
C         36.57887        50.98717        -0.36926
C         40.44391        20.26996         0.94708
C         39.23684        20.94694         0.99616
C         40.35191        22.99303         0.19231
C         39.12582        22.31900         0.65516
C         40.32170        24.49035         0.02710
C         39.07907        25.22830         0.31508
C         40.39133        27.39141         0.27198
C         39.07678        26.62899         0.21611
C         40.33848        28.83109        -0.15005
C         39.12474        29.52212        -0.05348
C         40.31845        31.65873        -0.17648
C         39.11303        30.93181        -0.01648
C         40.33030        33.12148        -0.15871
C         39.11609        33.84598        -0.01149
C         40.31900        35.98078        -0.31581
C         39.07592        35.24808        -0.18980
C         40.34369        37.39194        -0.36103
C         39.07204        38.12617        -0.46661
C         40.34862        40.31636        -0.42356
C         39.09514        39.58458        -0.15727
C         40.31447        41.71856        -0.43556
C         39.05231        42.45120        -0.46835
C         40.31536        44.56759        -0.26920
C         39.05752        43.84107        -0.47793
C         40.29865        46.06005        -0.39024
C         39.01313        46.77743        -0.58234
C         40.31625        48.87327        -0.38139
C         39.04120        48.17844        -0.53610
C         40.29044        50.29887        -0.14106
C         39.07399        51.01861        -0.20237
C         40.27498        53.09270         0.25655
C         39.10076        52.42854        -0.01879
C         42.92536        20.25482         0.62882
C         41.67792        20.92796         0.62686
C         42.86314        22.99848         0.07991
C         41.66120        22.31215         0.32004
C         42.87110        24.48179        -0.00919
C         41.60745        25.24000         0.05874
C         42.79298        27.35687        -0.52421
C         41.58203        26.66959        -0.28907
C         42.78577        28.79789        -0.64256
C         41.54035        29.52754        -0.44164
C         42.67988        31.69311        -0.96056
C         41.49749        30.94383        -0.50146
C         42.77267        33.12980        -0.63278
C         41.54801        33.83102        -0.32962
C         42.78665        35.98814        -0.38866
C         41.56276        35.26893        -0.32294
C         42.78919        37.40251        -0.40860
C         41.55215        38.12653        -0.38629
C         42.79940        40.28461        -0.39417
C         41.56154        39.57104        -0.43595
C         42.78479        41.69455        -0.38667
C         41.56512        42.43507        -0.44545
C         42.82014        44.60183        -0.39916
C         41.58586        43.84627        -0.39505
C         42.80541        45.99216        -0.59708
C         41.53984        46.74857        -0.90433
C         42.78410        48.84210        -0.11990
C         41.53357        48.19724        -0.44194
C         42.75039        50.25316         0.25918
C         41.51672        50.97254         0.15538
C         42.70457        53.05776         0.69558
C         41.49987        52.38231         0.37195
C         44.10521        20.93662         0.36808
C         45.34806        23.10468        -0.06419
C         44.10889        22.33192         0.12491
C         45.31474        24.43753        -0.44189
C         44.01329        25.12930        -0.75221
C         45.24808        27.34166        -0.79434
C         44.03571        26.64210        -0.63225
C         45.21271        28.75682        -1.00299
C         43.98946        29.46594        -0.96037
C         45.21724        31.70920        -1.22704
C         43.96735        30.92583        -1.24107
C         45.19992        33.08184        -1.03740
C         43.99109        33.79068        -0.70129
C         45.30593        35.96367        -0.73030
C         44.08574        35.22537        -0.22186
C         45.23868        37.41721        -0.87024
C         44.01703        38.14631        -0.50523
C         45.31216        40.24140        -0.32837
C         44.04625        39.54261        -0.40960
C         45.29421        41.65587         0.12194
C         44.01347        42.43272        -0.04229
C         45.30276        44.59124        -0.23058
C         44.05169        43.89035        -0.22066
C         45.31567        45.98503        -0.45277
C         44.07463        46.75693        -0.84414
C         45.22012        48.76305         0.31290
C         43.99210        48.15054        -0.21393
C         45.19035        50.21515         0.81021
C         43.92161        50.94976         0.62958
C         43.88180        52.35338         0.82694
C         47.80417        23.15351         0.15752
C         46.62106        22.50097         0.28161
C         47.89503        24.45807        -0.50568
C         46.53663        25.17074        -0.79542
C         47.73705        27.33626        -0.97861
C         46.52060        26.64048        -0.86664
C         47.74777        28.76345        -1.16532
C         46.45749        29.43717        -1.40204
C         47.75291        31.65470        -1.32439
C         46.46869        30.98140        -1.51101
C         47.75958        33.12254        -1.38359
C         46.44577        33.85991        -1.26699
C         47.77495        36.00484        -1.03074
C         46.49726        35.31107        -0.97420
C         47.81391        37.41583        -0.90656
C         46.55619        38.19046        -0.98981
C         47.77855        40.32762        -0.53845
C         46.52462        39.60588        -0.57388
C         47.80940        41.68655        -0.28248
C         46.61018        42.41316         0.28429
C         47.78208        44.57003        -0.11288
C         46.54996        43.88038        -0.11661
C         47.82926        46.00232        -0.16632
C         46.58137        46.70098        -0.45531
C         47.76828        48.85734         0.40489
C         46.54727        48.22444        -0.08948
C         47.66795        50.23377         0.81323
C         46.48674        50.90920         0.88630
C         50.34140        24.80090         0.07813
C         49.08635        25.30217        -0.42927
C         50.22441        27.37179        -1.06267
C         49.01443        26.64843        -0.86887
C         50.20938        28.78091        -1.16181
C         48.94636        29.48908        -1.18838
C         50.19336        31.66933        -1.20469
C         48.94893        30.94170        -1.25232
C         50.20988        33.11126        -1.14316
C         49.00859        33.85863        -1.14156
C         50.27846        35.97149        -0.88351
C         49.02253        35.27619        -1.04935
C         50.27938        37.40198        -0.73133
C         49.03873        38.10626        -0.79230
C         50.34905        40.32391        -0.65210
C         49.02267        39.58477        -0.85700
C         50.27346        41.73759        -0.26545
C         49.05367        42.41387        -0.19889
C         50.21375        44.56516         0.24553
C         49.01805        43.84554        -0.01825
C         50.21429        45.98477         0.40997
C         49.00600        46.71780         0.15056
C         50.23461        48.78110         0.70963
C         48.99079        48.14640         0.37420
C         51.50581        25.42587        -0.22753
C         52.76756        27.34419        -1.30797
C         51.48333        26.54740        -1.24176
C         52.69618        28.79556        -1.48102
C         51.42336        29.51120        -1.23790
C         52.64449        31.65863        -1.23203
C         51.41359        30.93207        -1.19295
C         52.58761        33.02776        -1.43328
C         51.44793        33.82951        -1.16613
C         52.73254        35.92356        -0.46477
C         51.51976        35.24773        -0.90130
C         52.67636        37.31407        -0.14757
C         51.50592        38.09086        -0.43381
C         52.69665        40.18119         0.14507
C         51.54903        39.52802        -0.29356
C         52.79007        41.65586         0.25773
C         51.50886        42.45275         0.03413
C         52.50546        44.46444         1.10642
C         51.41049        43.84545         0.49656
C         52.55403        45.87194         1.19938
C         51.41273        46.64238         0.80702
C         51.38979        48.07238         0.90240
C         55.22493        27.43297        -1.22213
C         53.98959        26.71759        -1.30293
C         55.25837        28.80906        -1.14437
C         54.02464        29.56664        -1.40893
C         55.19277        31.64319        -0.40319
C         53.93267        30.97363        -0.91930
C         55.25364        33.11128        -0.08394
C         54.35473        34.00303        -0.67107
C         54.91588        35.79833         0.79751
C         53.97908        35.25124        -0.13049
C         54.85374        37.21494         1.04904
C         53.81783        37.95118         0.45741
C         55.07064        40.11400         1.21681
C         53.90123        39.41451         0.45119
C         54.91153        41.53374         1.60199
C         53.82421        42.26833         1.13660
C         54.57509        44.30391         2.63037
C         53.47084        43.56024         1.83519
C         54.80214        45.72133         2.16146
C         53.81756        46.46495         1.61083
C         56.46455        29.55835        -0.85253
C         56.45422        30.88392        -0.56241
C         56.04192        33.62138         0.96969
C         55.93613        34.96264         1.32111
C         55.81996        37.86859         1.89835
C         55.88872        39.21875         2.03606
C         55.94313        42.20485         2.36424
C         55.85162        43.50572         2.73229
O         38.56774        39.99381         1.15213
O         55.12137        39.90083        -0.22019
O         44.46640        41.90393         1.31128
O         53.75921        33.63844        -1.88113
O         52.56028        42.33472        -1.01586
O         53.39989        29.31046        -2.68346
O         35.02830        27.83444        -1.04746
O         36.38423        38.77777         1.17143
O         49.79679        40.08334        -1.99177
O         40.19482        23.62891        -1.14904
O         32.31361        31.49197         2.07345
O         38.35079        37.79823        -1.71486
O         30.48701        36.86513         1.59662
O         54.23490        30.99078         0.53054
O         30.88071        33.25345        -1.06782
O         42.46495        25.04940         1.29246
O         40.36729        45.47990         0.94012
O         43.06757        31.32955        -2.32753
O         36.18840        25.01029         2.27242
O         46.63948        47.77664        -1.47333
O         47.02755        33.60335        -2.58719
O         37.97208        32.37284         1.59186
O         34.06243        38.71957        -1.92833
O         37.24987        44.16977        -2.09134
O         37.18729        29.15823        -1.42012
O         46.38410        30.11830        -2.69416
O         45.76253        37.89002        -2.17235
O         45.12404        49.07538         1.74034
O         52.71202        42.74724         2.75083
O         47.30398        24.50469        -1.84993
O         44.30550        35.13909         1.23961
H         43.47798        34.79906         1.64283
O         43.72851        24.84587        -2.16086
H         44.50287        25.13065        -2.69165
O         41.41007        46.76896        -2.36078
H         42.30614        46.97837        -2.72316
O         51.36952        25.89710        -2.55478
H         50.50560        25.43180        -2.57935
O         54.08431        44.42714         3.99378
H         53.39538        43.70823         4.05763
O         31.40740        39.36423        -2.23415
H         32.29734        39.05682        -2.54342
O         33.81150        48.26621         1.23423
H         32.97720        47.79103         1.43654
O         40.66533        27.47209         1.73569
H         41.22620        26.70096         1.98048
O         46.89731        42.45971         1.72009
H         46.01803        42.47846         2.17117
O         44.16240        46.98488        -2.31184
H         45.04931        47.39747        -2.46592
H         26.97276        26.86542         1.37159
H         25.73129        28.99710         1.24874
H         25.68319        31.43833         0.97766
H         25.69328        33.39467         1.02254
H         25.70874        35.80334         0.76882
H         25.69655        37.68028         0.45867
H         25.67647        40.08621         0.20271
H         25.67066        41.99259        -0.05927
H         25.70959        44.44368        -0.22708
H         26.95461        46.56127        -0.44437
H         29.08194        25.61714         1.32480
H         29.07882        47.78499        -0.64246
H         32.86531        23.50407         1.53847
H         30.74461        24.71173         1.50554
H         32.83447        49.88016        -1.11368
H         30.75176        48.62932        -1.31924
H         34.50892        22.47857         0.89048
H         34.43161        50.85250        -0.29429
H         36.61622        21.29843         0.76681
H         36.53854        52.08048        -0.28009
H         40.47226        19.20054         1.20125
H         38.34001        20.39594         1.31306
H         40.27343        54.18218         0.40375
H         38.17221        53.00991        -0.08787
H         42.95324        19.17713         0.84458
H         42.68581        54.14408         0.86181
H         45.04915        20.37481         0.37019
H         44.79639        52.89129         1.10897
H         48.71768        22.70048         0.56762
H         46.61706        21.51129         0.75866
H         48.59592        50.79343         0.99464
H         46.50641        51.98939         1.08375
H         50.34468        23.89879         0.70692
H         50.26566        49.87310         0.82204
H         52.46475        25.03207         0.13841
H         52.30867        48.61192         1.16922
H         56.15494        26.85978        -1.09521
H         54.03178        25.61972        -1.26086
H         55.76138        46.19689         2.41963
H         53.99315        47.53132         1.40480
H         57.42167        29.01616        -0.88972
H         57.40107        31.41859        -0.39793
H         56.77487        32.97538         1.47230
H         56.63663        35.36597         2.06388
H         56.47777        37.24374         2.51787
H         56.53300        39.65109         2.81450
H         56.87166        41.65295         2.57471
H         56.69329        43.97916         3.26069
