         429
 CSIRO Nanostructure Databank - Neutral Graphene Oxide Data Set
C          1.46360         3.46327        -0.82453
C          0.48465         4.24143        -1.32649
C          1.20398         6.23794        -0.07297
C          0.34100         5.62652        -0.93909
C          1.21898         7.70564         0.02726
C          0.02287         8.45331        -0.23745
C          1.16130        10.57644         0.15933
C         -0.01075         9.83261        -0.07614
C          1.16390        11.98828         0.39545
C         -0.05156        12.71459         0.35789
C          1.11746        14.78321         0.85364
C         -0.06688        14.07901         0.56825
C          1.03278        16.23552         1.12074
C         -0.09531        17.03604         0.63007
C          1.18161        19.12752         0.81488
C         -0.04201        18.39480         0.59610
C          1.21646        20.57588         0.69094
C          0.05926        21.35543         0.71031
C          1.33181        23.43647         0.54517
C          0.12716        22.76395         0.67615
C          1.42699        24.94732         0.64684
C          0.15074        25.67663         0.34508
C          1.36893        27.60119        -0.52963
C          0.16160        26.94682        -0.15345
C          1.26149        28.98899        -1.10885
C          0.48880        29.91901        -0.18529
C          1.18594        31.79932        -1.61150
C          0.46523        31.23755        -0.40696
C          1.31621        33.31626        -1.57061
C          0.11450        34.04402        -1.60976
C          1.31225        36.15634        -1.62148
C          0.10267        35.43499        -1.65141
C          1.33625        37.59306        -1.64934
C          3.74640         3.39798         0.14803
C          2.35196         3.93384         0.29901
C          3.58908         6.21422         0.86329
C          2.32619         5.45677         0.51493
C          3.57606         7.74456         0.96702
C          2.39393         8.38964         0.29257
C          3.66435        10.57495         0.54338
C          2.46774         9.86151        -0.02416
C          3.63614        11.96563         0.74818
C          2.38360        12.69021         0.67840
C          3.60651        14.81122         1.16592
C          2.35934        14.09313         0.91939
C          3.61670        16.22213         1.26333
C          2.35467        16.98283         1.32093
C          3.63716        19.08868         1.02361
C          2.36947        18.42067         1.02712
C          3.66954        20.48824         0.71164
C          2.48966        21.23610         0.58159
C          3.76760        23.32505         0.16484
C          2.54799        22.68198         0.43157
C          3.80779        24.73473        -0.15848
C          2.61874        25.52134        -0.08934
C          3.77584        27.52077        -1.03778
C          2.59191        26.88111        -0.53915
C          3.80096        28.92748        -1.35757
C          2.59445        29.63504        -1.42672
C          3.80476        31.84934        -1.84353
C          2.52303        31.07234        -1.78520
C          3.81785        33.31245        -1.58072
C          2.55057        34.00760        -1.56986
C          3.76628        36.16161        -1.43995
C          2.54342        35.43969        -1.55271
C          3.76754        37.59174        -1.43767
C          2.51408        38.28320        -1.57599
C          6.15357         3.47790         0.08448
C          4.91113         4.10475         0.38873
C          6.07634         6.25605         0.73395
C          4.90260         5.53720         0.71380
C          6.09398         7.71119         0.72095
C          4.89018         8.41885         0.65599
C          6.10738        10.55097         0.81128
C          4.87935         9.84583         0.64537
C          6.07336        11.95106         1.02615
C          4.85752        12.66539         1.05146
C          6.05610        14.82455         1.47488
C          4.84443        14.10094         1.25187
C          6.07147        16.23257         1.46243
C          4.83808        16.94751         1.34745
C          6.06221        19.15265         1.65637
C          4.82174        18.38119         1.29964
C          6.08031        20.55981         1.08150
C          4.95111        21.15405         0.61456
C          6.30596        23.15277        -0.18861
C          4.95371        22.43840        -0.18309
C          6.31530        24.65367        -0.54034
C          5.00597        25.33917        -0.59517
C          6.31888        27.50815        -1.01162
C          4.99460        26.72269        -1.06674
C          6.26936        28.97803        -1.16080
C          5.09414        29.62399        -1.49134
C          6.36628        31.89270        -1.62106
C          5.10152        31.08932        -1.79483
C          6.29540        33.33203        -1.24153
C          5.00433        34.01145        -1.36784
C          6.16626        36.16937        -0.97171
C          4.98813        35.45329        -1.24146
C          6.18762        37.58828        -1.05038
C          4.98169        38.28369        -1.29604
C          8.50741         3.66647        -0.46448
C          7.37422         4.18695         0.12535
C          8.61761         6.32524         0.60711
C          7.38186         5.50628         0.88742
C          8.60457         7.69831         0.58384
C          7.34305         8.42661         0.68779
C          8.59631        10.57187         0.80042
C          7.34659         9.82830         0.78388
C          8.60560        11.93902         1.07097
C          7.33365        12.61260         1.41434
C          8.64819        14.82865         1.85278
C          7.31816        14.08151         1.72538
C          8.58214        16.26969         1.40706
C          7.33612        16.97543         1.44237
C          8.58369        19.10066         1.20853
C          7.32503        18.36875         1.38266
C          8.57501        20.58387         1.13748
C          7.30970        21.38221         1.36462
C          8.64783        23.38160         0.63094
C          7.44194        22.66007         0.57021
C          8.66586        24.79808         0.30827
C          7.50208        25.42440        -0.14253
C          8.66445        27.68953         0.08592
C          7.40406        26.88551        -0.19839
C          8.75428        29.03252        -0.49221
C          7.60118        29.63083        -1.15855
C          8.78214        31.86615        -0.81301
C          7.64685        31.16893        -1.36483
C          8.64594        33.27433        -0.31680
C          7.39498        33.98913        -0.76510
C          8.66961        36.16044        -0.72300
C          7.36126        35.45622        -0.40268
C          8.65730        37.60044        -0.84229
C          7.43865        38.28211        -0.92605
C         10.99268         3.64318        -0.77759
C          9.74903         4.48439        -0.64013
C         11.14074         6.34892         0.28976
C          9.88591         5.51200         0.51281
C         11.06022         7.81175         0.15016
C          9.83796         8.46787         0.40054
C         11.03968        10.61916         0.38115
C          9.82609         9.88411         0.50533
C         11.03734        12.03498         0.63302
C          9.82451        12.70033         0.99948
C         11.05250        14.81824         1.13122
C          9.84306        14.09251         1.26067
C         11.04648        16.24239         1.35878
C          9.82287        16.96050         1.37347
C         11.06830        19.09991         1.51493
C          9.86555        18.39737         1.39846
C         11.07666        20.57337         1.66228
C          9.80444        21.34732         1.50458
C         11.08336        23.45271         1.21212
C          9.85463        22.77114         1.13257
C         11.09541        24.88113         0.94980
C          9.87910        25.55502         0.57238
C         11.11159        27.69963         0.48013
C          9.89954        26.95310         0.39437
C         11.12269        29.06365         0.10203
C          9.97153        29.72704        -0.43160
C         11.16537        31.94906        -0.37132
C          9.98249        31.17812        -0.60502
C         11.14320        33.36291        -0.43143
C          9.91571        34.05644        -0.53727
C         11.16478        36.16594        -1.08734
C          9.87531        35.46266        -0.71127
C         11.13233        37.65612        -0.83260
C          9.90590        38.31201        -0.83140
C         13.45673         3.56877        -1.01973
C         12.23126         4.23056        -0.70150
C         13.38405         6.49091        -0.91830
C         12.33447         5.66564        -0.30722
C         13.40249         7.86802        -0.74172
C         12.23247         8.53782        -0.19138
C         13.46968        10.66324        -0.18956
C         12.23199         9.94886        -0.03970
C         13.51571        12.04231         0.31496
C         12.24672        12.77736         0.53238
C         13.43379        15.00664         0.28785
C         12.25600        14.16031         0.72958
C         13.62428        16.26152         1.11791
C         12.29865        16.96600         1.54653
C         13.54833        19.13920         1.49849
C         12.32312        18.42532         1.56652
C         13.53436        20.58120         1.52619
C         12.34040        21.31167         1.52968
C         13.56810        23.45318         1.58270
C         12.31920        22.73837         1.46835
C         13.50184        24.93579         1.61127
C         12.28411        25.61853         1.11811
C         13.54717        27.75292         1.00205
C         12.32708        27.02549         0.89428
C         13.49766        29.25477         0.99042
C         12.40642        29.78032         0.09527
C         13.62424        32.03744         0.20696
C         12.43442        31.25758        -0.18199
C         13.60347        33.43219         0.03765
C         12.38924        34.11312        -0.32835
C         13.60869        36.23347        -0.40437
C         12.39716        35.49064        -0.53432
C         13.59995        37.67224        -0.64747
C         12.36758        38.34583        -0.77913
C         15.82729         3.70174        -1.64687
C         14.58849         4.30813        -1.40267
C         15.66591         6.58679        -2.05466
C         14.44685         5.77240        -1.62634
C         15.67340         8.03015        -1.72282
C         14.57999         8.64805        -1.12051
C         15.83479        10.81921        -0.85760
C         14.62185        10.05413        -0.71233
C         15.93535        12.16460        -0.51611
C         14.81078        12.83050         0.15071
C         15.87686        15.03545        -0.18549
C         14.75647        14.29814         0.13279
C         15.80520        16.56825        -0.18867
C         14.77536        17.10823         0.81628
C         15.93541        19.29461         0.64559
C         14.77412        18.45004         1.14703
C         16.09105        20.57928         1.44612
C         14.79738        21.31342         1.70540
C         16.09807        23.46757         1.77990
C         14.78185        22.78418         1.73381
C         16.11690        24.99171         1.63923
C         14.80429        25.71425         1.62362
C         16.01639        27.81549         1.03241
C         14.78923        27.12059         1.18188
C         16.02262        29.24883         0.86824
C         14.81604        29.94372         0.75048
C         16.04715        32.08840         0.64534
C         14.82018        31.35340         0.53856
C         16.01807        33.49505         0.51123
C         14.81772        34.17424         0.20338
C         16.07110        36.29914        -0.10351
C         14.80358        35.58970        -0.04317
C         16.06531        37.70909        -0.49902
C         14.83036        38.36250        -0.69305
C         18.26477         3.77466        -2.08889
C         16.99204         4.45300        -1.98242
C         18.16229         6.56199        -2.52129
C         16.93774         5.84240        -2.17421
C         18.16334         8.09793        -2.43777
C         16.89530         8.80603        -2.04201
C         18.34371        10.78998        -1.20484
C         16.98955        10.21607        -1.56469
C         18.31991        12.30274        -1.22761
C         17.10928        12.96409        -0.82533
C         18.25529        15.18520        -0.94149
C         17.06818        14.36367        -0.63471
C         18.35399        16.52715        -0.32118
C         17.16396        17.21109         0.04354
C         18.48532        19.15987         0.73827
C         17.22820        18.52442         0.50728
C         18.56859        20.49900         1.26763
C         17.37308        21.33699         1.37833
C         18.55312        23.55135         1.33573
C         17.35849        22.71307         1.49473
C         18.40326        24.82521         0.52170
C         17.28058        25.69427         1.05637
C         18.46779        27.83955         0.64897
C         17.24649        27.07963         0.88065
C         18.49651        29.21302         0.82641
C         17.26894        29.96953         0.85994
C         18.54205        32.11799         0.78717
C         17.28227        31.37817         0.81557
C         18.54300        33.53383         0.71498
C         17.24488        34.29717         0.84673
C         18.57674        36.25509        -0.19890
C         17.24993        35.64913         0.17268
C         18.52847        37.76024        -0.35992
C         17.28777        38.40371        -0.57533
C         19.43984         4.45055        -2.29406
C         20.62857         6.61417        -2.59764
C         19.45275         5.86718        -2.46935
C         20.63323         8.01349        -2.51515
C         19.46859         8.76960        -2.27389
C         20.67766        10.92340        -2.08092
C         19.51467        10.15353        -1.92453
C         20.69401        12.28854        -1.80420
C         19.52012        12.99271        -1.43176
C         20.80555        15.15282        -0.99092
C         19.54547        14.47200        -1.32896
C         20.81719        16.39435        -0.45352
C         19.60939        17.12187        -0.11474
C         20.93493        18.95813         0.91443
C         19.68616        18.41753         0.50304
C         20.98909        20.15345         1.59909
C         19.80904        20.90081         1.78447
C         21.02400        23.80499         1.36253
C         19.79016        23.16082         1.75877
C         20.99789        24.91614         0.59434
C         19.71782        25.59543         0.30024
C         20.97863        27.88201         0.39477
C         19.71540        27.11247         0.31132
C         21.00573        29.18707         0.69681
C         19.78523        29.93688         1.16462
C         20.96585        32.14482         0.75248
C         19.77337        31.41818         0.82816
C         20.96036        33.53773         0.65833
C         19.75530        34.25238         0.67449
C         20.98972        36.49420         0.40419
C         19.70299        35.77607         0.74211
C         20.96934        37.75298        -0.10811
C         19.74120        38.43331        -0.40480
O          7.97834        30.24266        -2.43141
O         18.01963         7.42747        -3.71355
O         18.71489        15.13464        -2.33514
O         16.34774        24.35347         2.93705
O         10.29868        21.03576         2.84174
O         15.56759        20.60539         2.79191
O         19.91091        22.04015         2.60535
O          3.09607        31.44865        -3.08523
O         19.66536        26.33684        -0.95702
O          5.91992        26.85135        -2.22792
O         14.44424        12.22790         1.44754
O         12.23989         5.90285         1.16197
O          5.88340        31.54593        -2.95351
O         14.02898        25.52687         2.85020
O          8.61775        19.90071        -0.13973
O          7.21884        13.10070         2.82015
O         14.63241         6.18060        -3.02034
O          2.68783         5.69772         1.91956
O         13.20526        16.25090         2.47777
O         16.69613         9.95712        -2.96322
O          7.57644        27.55545         1.09560
O          1.49745        16.61282         2.45745
O          6.62506        23.62484        -1.54213
O         12.78577        30.24561        -1.22754
O         15.23510        17.02112        -1.41154
O          3.37146         8.08524         2.37890
H          2.82800         7.35552         2.76229
O         17.92969        24.40624        -0.79312
H         18.22598        25.10076        -1.42787
O          8.94246        14.92438         3.28355
H          8.54607        14.12147         3.69960
O          1.70816        25.19760         2.08612
H          1.72268        26.17063         2.21057
O         11.27195        36.02345        -2.54770
H         10.47614        36.43897        -2.94246
O         19.83731        29.90984         2.63580
H         19.79004        28.97300         2.92135
O         13.07287        15.46694        -1.04937
H         13.82400        16.06815        -1.37693
O         18.91385        35.70806        -1.51398
H         18.22947        36.00852        -2.14831
O         19.39946        36.14809         2.10671
H         18.64951        35.58065         2.42083
O         13.07041        29.64912         2.34544
H         13.63008        29.16447         2.98941
O         10.04321         4.75849         1.73824
H         10.99077         4.86507         2.00649
O          7.19569        35.54434         1.05570
H          7.70536        34.79206         1.44689
O         17.12618        34.59472         2.30461
H         16.27137        35.05883         2.43782
O         15.55503        19.67811        -0.70753
H         15.41987        18.81052        -1.20126
O          7.43213         5.15154         2.30463
H          8.35214         4.83254         2.47890
O          9.60658         5.29047        -1.85752
H          9.57260         4.67985        -2.62355
O          4.68372        21.99426        -1.54656
H          5.21780        22.57557        -2.14087
O          0.38864        31.50042        -2.78136
H          0.99302        31.56003        -3.55360
O          7.24235        21.75399         2.76692
H          6.99308        20.94001         3.27230
O          2.71105         9.90327        -1.50260
H          1.89913         9.55497        -1.93155
O          8.49137        33.15225         1.16828
H          9.33833        32.79645         1.51618
O          1.80459         3.31640         1.50415
H          2.16628         3.83380         2.26056
O         18.52225        10.40026         0.20621
H         19.34258        10.82754         0.53238
O          6.03132        19.31844         3.14133
H          5.09401        19.44096         3.40681
O          0.50420        28.86333        -2.34963
H          1.07083        28.39733        -2.99912
H          1.57143         2.41784        -1.14856
H         -0.19631         3.85086        -2.09635
H         -0.43788         6.21470        -1.44401
H         -0.91845         7.91696        -0.41661
H         -0.98978        10.32996        -0.10658
H         -1.00010        12.20131         0.15747
H         -1.02809        14.60835         0.54259
H         -1.00118        16.52964         0.26899
H         -0.93031        18.94749         0.25955
H         -0.92765        20.88358         0.80924
H         -0.81599        23.31969         0.76172
H         -0.80601        25.23330         0.65185
H         -0.78640        27.48560        -0.29647
H         -0.03971        29.48394         0.67711
H         -0.09536        31.91571         0.25444
H         -0.83403        33.48947        -1.63283
H         -0.85242        35.97746        -1.69902
H          0.38088        38.13207        -1.72904
H          3.83469         2.33713        -0.13501
H          2.51726        39.38280        -1.59450
H          6.13654         2.46394        -0.34510
H          4.98930        39.38313        -1.33798
H          8.45959         2.66935        -0.93351
H          7.44030        39.38093        -0.98812
H         10.90042         2.58896        -1.08117
H          9.87953        39.41150        -0.77359
H         13.49127         2.46979        -1.05019
H         12.36519        39.44682        -0.81205
H         15.92732         2.61610        -1.50342
H         14.82883        39.44191        -0.90869
H         18.27692         2.68289        -1.96020
H         17.27597        39.48655        -0.77573
H         20.39410         3.90499        -2.32498
H         21.59060         6.08492        -2.65723
H         21.60997         8.51623        -2.50301
H         21.58431        10.46967        -2.50380
H         21.62296        12.84502        -1.98494
H         21.75796        14.62607        -1.14513
H         21.79217        16.85072        -0.23912
H         21.86556        18.39815         0.76153
H         21.93635        20.53024         2.00597
H         21.97401        23.33140         1.64438
H         21.93052        25.36639         0.22906
H         21.90583        27.37813         0.08640
H         21.97560        29.70469         0.70810
H         21.93549        31.63123         0.79838
H         21.92196        34.06646         0.61646
H         21.94939        36.05787         0.71766
H         21.91336        38.29837        -0.25629
H         19.76709        39.50635        -0.64692
