         256
 CSIRO Nanostructure Databank - Neutral Graphene Oxide Data Set
C        -11.03882         0.61437        -1.19814
C         -9.98811         1.50742        -0.56380
C         -8.67107         0.74735        -0.50846
C         -7.39278         1.48502        -0.72287
C         -6.10928         0.77747        -0.40702
C         -4.82280         1.57226        -0.13768
C         -3.68721         0.75264         0.46366
C         -2.57477         1.41201         0.92035
C         -1.22992         0.78161         0.55119
C          0.09024         1.41321         1.05597
C          1.21821         0.76063         0.23314
C          2.48044         1.52673        -0.16253
C          3.77275         0.73405         0.00386
C          4.96575         1.45313        -0.27330
C          6.19796         0.79021        -0.42933
C          7.42352         1.52210        -0.69408
C          8.67551         0.76430        -0.87470
C          9.99498         1.56605        -0.66013
C         11.14052         0.77482        -0.18759
C         -9.87675         2.90127        -1.22233
C         -8.69859         3.69811        -0.67652
C         -7.34549         3.02002        -0.80851
C         -6.37069         3.57362         0.24256
C         -5.11832         2.85685         0.61429
C         -3.95045         3.61801         1.26754
C         -2.57867         2.88462         1.19147
C         -1.26973         3.64730         1.05832
C          0.07224         2.94221         1.00373
C          1.34850         3.69672         0.78718
C          2.56926         2.95560         0.35383
C          3.68682         3.63905        -0.01093
C          4.87885         2.90428        -0.51191
C          6.16880         3.66661        -0.71327
C          7.44868         2.92210        -0.67409
C          8.67926         3.66091        -0.49318
C          9.86959         2.99017        -0.34810
C         -8.80398         4.98520        -0.28791
C         -7.66669         5.79555         0.31633
C         -6.34164         5.06933         0.16566
C         -5.05601         5.80463         0.30492
C         -3.83753         5.11050         0.84589
C         -2.54014         5.82987         0.63291
C         -1.25083         5.04492         0.42616
C         -0.00622         5.88534         0.77405
C          1.38060         5.22942         0.73072
C          2.29105         5.77160        -0.37225
C          3.60675         5.07251        -0.39311
C          4.85109         5.83611        -0.59918
C          6.14100         5.11677        -0.25838
C          7.38435         5.88228        -0.62917
C          8.68108         5.17491        -0.26769
C         -7.52746         7.23370        -0.13565
C         -6.34167         7.92983        -0.08738
C         -5.05926         7.29088         0.20965
C         -3.86755         7.95735         0.04670
C         -2.57272         7.21988         0.05018
C         -1.29739         7.99565         0.02353
C         -0.02611         7.36543         0.52945
C          1.28874         8.08455         0.19011
C          2.21771         7.26591        -0.72620
C          3.55954         7.96186        -0.43650
C          4.81375         7.18219        -0.77179
C          6.02000         7.86159        -1.38966
C          7.32366         7.16738        -1.03209
C         -6.28621         9.33675        -0.45641
C         -5.11207        10.01116        -0.56043
C         -3.83089         9.37543        -0.29580
C         -2.64980        10.07027        -0.39015
C         -1.33890         9.51085         0.10742
C         -0.08741        10.09510        -0.51537
C          1.11305         9.45968        -0.44191
C          2.36084        10.08005        -0.87669
C          3.55049         9.40322        -0.87665
C          4.84047        10.04357        -1.08788
C          5.99971         9.35666        -1.19866
C        -11.06023        -0.69772        -0.92486
C        -10.01592        -1.30334        -0.01118
C         -8.69326        -0.58059        -0.21564
C         -7.48896        -1.29456         0.28848
C         -6.17216        -0.69048        -0.07189
C         -4.91883        -1.47855         0.04493
C         -3.58801        -0.71468        -0.00445
C         -2.50725        -1.44786         0.77207
C         -1.20353        -0.71784         0.87535
C          0.08344        -1.48525         0.85202
C          1.25846        -0.72993         0.29293
C          2.54316        -1.44999         0.07918
C          3.80153        -0.66245         0.07870
C          5.03068        -1.37683        -0.07839
C          6.22187        -0.63656        -0.34701
C          7.42845        -1.35138        -0.63327
C          8.70486        -0.70412        -0.70671
C          9.92812        -1.39022        -0.43126
C         11.10327        -0.57966        -0.13069
C         -9.86536        -2.80284        -0.16912
C         -8.72265        -3.50465         0.17965
C         -7.53172        -2.75301         0.66510
C         -6.23368        -3.50916         1.05937
C         -4.97134        -2.95835         0.38500
C         -3.71243        -3.72298         0.57814
C         -2.48623        -2.93213         0.91514
C         -1.18324        -3.68085         1.07269
C          0.10367        -2.96953         0.80577
C          1.28760        -3.63306         0.68385
C          2.54619        -2.92524         0.30155
C          3.87934        -3.57371         0.49534
C          5.05931        -2.81368        -0.00503
C          6.21651        -3.50362        -0.38075
C          7.28713        -2.73095        -0.86126
C          9.13050        -3.78528        -0.54779
C         10.05314        -2.78556        -0.14924
C         -8.60423        -4.90682        -0.04644
C         -7.45148        -5.68959         0.23229
C         -6.29489        -5.05492         0.93455
C         -4.98139        -5.86147         1.00976
C         -3.70359        -5.15054         0.97918
C         -2.49454        -5.82376         0.36052
C         -1.21110        -5.16629         0.86102
C          0.06863        -5.83799         0.46171
C          1.33612        -5.11517         0.83131
C          2.63936        -5.85086         0.76218
C          3.93585        -5.06570         0.60205
C          5.18201        -5.77664         0.14030
C          6.27387        -5.00724        -0.61960
C          7.61359        -5.75645        -0.41100
C          8.85274        -5.06568        -0.06614
C         -7.39992        -7.02707        -0.16218
C         -6.27433        -7.93156         0.10402
C         -4.97349        -7.32069         0.65104
C         -3.70150        -8.00789         0.33386
C         -2.46655        -7.33529         0.42079
C         -1.25514        -8.03934         0.23650
C          0.04351        -7.30797         0.20800
C          1.32000        -8.09095         0.29049
C          2.61120        -7.33759         0.44588
C          3.80822        -7.92522        -0.23508
C          5.13733        -7.24039        -0.13105
C          6.30200        -7.87380        -0.90762
C          7.56891        -7.12570        -0.50382
C         -6.13637        -9.21487        -0.61019
C         -4.98032        -9.92663        -0.56564
C         -3.72850        -9.36224        -0.08475
C         -2.50741       -10.05558        -0.23668
C         -1.27005        -9.42510        -0.04713
C         -0.00224       -10.25096        -0.24466
C          1.31712        -9.48525        -0.24856
C          2.49032       -10.11336        -0.51145
C          3.77706        -9.36947        -0.63913
C          5.10442       -10.04680        -0.61657
C          6.26901        -9.36923        -0.64389
O         -7.77593        -1.70599         1.66656
O          2.08851         8.27190         1.40697
O         -6.57265         0.90891        -1.79134
O         -0.15367         6.81755         1.87785
O         -1.82026         3.37298         2.36531
O          8.26991        -3.38455        -1.60725
O          5.59454        -6.74762         1.15761
O         -6.30292         2.82682         1.47412
O          0.89040         3.38654         2.14041
O         -5.88182        -5.66090         2.17943
O         -1.18800        -4.62780         2.20038
O        -11.10707         3.58451        -1.01394
H        -11.35954         3.41563        -0.07898
O          0.05339       -11.26302         0.77572
H          0.18372       -10.82127         1.64031
O         -5.85645        -8.07993         1.51178
O          1.99003        -5.58022         2.04182
O          2.04875        -8.08176         1.56952
O          9.79552         5.76662        -0.93336
H          9.73841         5.55057        -1.88646
O          5.91862        -5.11099        -2.03601
H          6.60218        -4.61137        -2.53701
O          2.46165        -2.38246        -1.06702
O          3.50974         7.99099         1.05364
O          9.50507         1.21716        -1.98882
O         -7.96442         5.85102         1.74560
H         -7.24003         6.33160         2.19841
O         -6.86668         3.38264        -2.11241
H         -6.02142         2.89778        -2.26646
O        -10.39545         1.75258         0.80831
H        -10.54564         0.86800         1.23086
O         -1.80561         7.39491        -1.20707
O          4.15168        -4.21147         1.77648
O          1.79092         7.40138        -2.07265
H          2.10289         6.59974        -2.55667
O          2.61594         5.03916        -1.56972
O         -4.31073         2.02373        -1.42145
H         -4.05565         1.23018        -1.94290
O         -0.50653        -1.04776         2.10583
O         -5.52381         5.34651        -1.02463
O        -10.43300        -1.03657         1.36886
H         -9.66681        -1.30049         1.93747
O         -3.17570         5.84393         1.93612
O         -4.36985        -3.63915        -0.76166
O          3.59434        -8.28464        -1.63495
O          0.81166        -0.04314        -0.91875
O         -2.87159        -2.04448         2.03808
O          5.32478         3.35343        -1.84667
O         -4.30206         3.64709         2.65665
H         -3.56456         4.09376         3.13164
O          0.07981        -6.32355        -0.92302
O         -1.15993         4.75982        -0.98935
H         -1.30363         5.60805        -1.48205
O         -5.60836        -1.39272        -1.24979
O         -1.27826         9.80686         1.53815
H         -1.21136        10.77812         1.64751
O          5.85189         7.67214        -2.83624
H          5.81154         6.70750        -3.01112
O         -1.23371         1.09017        -0.86082
H         -1.86791         0.49418        -1.33070
O         -2.53552        -5.53365        -1.07639
H         -1.68797        -5.87020        -1.46021
O          2.39658         1.75090        -1.59924
H          1.89862         0.99164        -1.98592
O         -6.01728        -3.18937         2.44514
H         -5.80697        -4.03163         2.91899
O         -3.17335        -0.70294        -1.39933
H         -3.96074        -0.99256        -1.92992
O          2.10004         5.62179         1.91991
H          1.49148         6.15744         2.48337
O          6.12504         5.02420         1.20284
H          5.95010         5.91733         1.56968
O          6.14363        -7.75029        -2.33415
H          5.94959        -6.80246        -2.54018
O          0.37284         1.08113         2.41643
H         -0.11161         1.69997         3.00358
H         11.99688        -1.11868         0.21900
H         12.03702         1.31278         0.15558
H         10.76587         3.53956        -0.02203
H          8.84267         5.34506         0.83409
H          8.26255         7.70624        -1.24194
H          6.94913         9.90125        -1.31318
H          4.86054        11.14496        -1.09100
H          2.33229        11.13824        -1.17993
H         -0.13805        11.10823        -0.94622
H         -2.67874        11.13644        -0.66698
H         -5.11064        11.07304        -0.84798
H         -7.23550         9.84916        -0.67208
H         -8.44402         7.77581        -0.41740
H         -9.80374         5.44962        -0.27730
H         -9.72692         2.77688        -2.32762
H        -11.80870         1.07383        -1.83640
H        -11.84085        -1.35204        -1.34284
H        -10.73363        -3.36991        -0.54176
H         -9.48101        -5.42803        -0.46190
H         -8.23514        -7.42282        -0.76057
H         -7.01656        -9.62147        -1.13046
H         -4.93617       -10.91930        -1.03835
H         -2.52668       -11.11051        -0.54754
H         -0.09712       -10.79993        -1.21871
H          2.48763       -11.18184        -0.77808
H          5.10762       -11.14028        -0.48773
H          7.22165        -9.91779        -0.58428
H          8.50483        -7.69709        -0.39363
H          9.57212        -5.58085         0.58846
H         10.93295        -3.09799         0.43497
