         630
 CSIRO Nanostructure Databank - Neutral Graphene Oxide Data Set
C         23.53662        27.42837        -2.37360
C         23.52233        28.79327        -2.42258
C         23.48898        31.73054        -2.46550
C         23.57015        33.03736        -2.78232
C         23.46633        35.87716        -2.09196
C         23.38338        37.26586        -1.84550
C         23.28233        40.21732        -1.74322
C         23.24949        41.59788        -1.68755
C         23.26662        44.54206        -1.75557
C         23.19841        45.89434        -1.67846
C         25.62954        24.61280        -1.05672
C         24.59791        25.29046        -1.68909
C         25.67465        27.39813        -1.12610
C         24.60926        26.69769        -1.74303
C         25.57242        28.86463        -1.02930
C         24.54835        29.58489        -1.79985
C         25.81376        31.71084        -1.58786
C         24.60616        30.98077        -1.91906
C         25.93382        33.09415        -1.91988
C         24.85721        33.80777        -2.72306
C         25.90316        36.02504        -2.03294
C         24.68297        35.24238        -2.24297
C         25.80478        37.41905        -1.58562
C         24.52883        38.05322        -1.62258
C         25.61305        40.20698        -1.00654
C         24.45955        39.49169        -1.44123
C         25.52351        41.61713        -0.83615
C         24.37716        42.34221        -1.24544
C         25.50170        44.51946        -0.73198
C         24.37065        43.79250        -1.20167
C         25.49587        45.94474        -0.69261
C         24.18622        46.67715        -0.86062
C         25.53023        48.74839        -1.11280
C         24.37797        48.08635        -1.34282
C         28.08111        23.17477        -0.54155
C         27.87057        24.52332         0.12971
C         26.74252        25.29802        -0.52929
C         27.90805        27.45377         0.12103
C         26.76888        26.70374        -0.56308
C         28.06298        28.88011        -0.35470
C         26.84502        29.64096        -0.61996
C         28.19251        31.68175        -0.91247
C         26.93494        31.03552        -1.04708
C         28.24584        33.10447        -1.08218
C         27.11378        33.78754        -1.58209
C         28.26131        35.98235        -1.01029
C         27.19940        35.26024        -1.72818
C         28.17973        37.38728        -0.84992
C         26.95549        38.10587        -1.12475
C         28.01999        40.17900        -0.34396
C         26.85771        39.49550        -0.79078
C         27.92412        41.60887         0.02656
C         26.64112        42.34799        -0.21654
C         27.81941        44.52791         0.08881
C         26.68671        43.82853        -0.30010
C         27.85892        45.96163         0.02251
C         26.65817        46.66661        -0.36713
C         27.79833        48.83884        -0.07245
C         26.67382        48.10518        -0.48583
C         27.87101        50.26178        -0.14090
C         30.41104        23.04691         0.23544
C         29.22550        22.48481        -0.44571
C         30.40760        24.54993         0.43446
C         29.17420        25.31277         0.14594
C         30.48171        27.39522         0.13113
C         29.21129        26.67658         0.07997
C         30.52184        28.78818        -0.04083
C         29.29747        29.53546        -0.33613
C         30.67456        31.65262        -0.63914
C         29.35290        30.94180        -0.56977
C         30.58071        33.11991        -0.29553
C         29.42580        33.82385        -0.66241
C         30.49520        35.94641         0.03608
C         29.38457        35.25554        -0.54306
C         30.42056        37.35292         0.18400
C         29.29159        38.07560        -0.26014
C         30.41606        40.22971         0.33655
C         29.22831        39.50519        -0.10483
C         30.40242        41.68050         0.43484
C         29.18922        42.44195        -0.03341
C         30.27924        44.59957         0.68531
C         29.00218        43.79055         0.67597
C         30.27881        45.98578         0.64014
C         29.02955        46.66578         0.36230
C         30.30564        48.90387         0.57706
C         28.96808        48.12527         0.46629
C         30.31453        50.31935         0.18269
C         29.05459        50.95841        -0.01136
C         32.94415        20.26175         0.03286
C         31.75159        20.96067        -0.04544
C         32.91347        23.06028         0.41534
C         31.71320        22.35007         0.16722
C         32.90736        24.50693         0.51059
C         31.70394        25.24556         0.43202
C         32.95494        27.35589         0.41046
C         31.71027        26.66116         0.32239
C         32.96928        28.78236         0.37289
C         31.76121        29.50432         0.11423
C         32.95320        31.64261         0.42913
C         31.79450        30.91868         0.04454
C         32.89682        33.05970         0.55900
C         31.72205        33.80591         0.21820
C         32.85853        35.95191         0.82180
C         31.67535        35.21822         0.41131
C         32.81053        37.34658         0.96265
C         31.47672        38.05391         0.99402
C         32.75484        40.25483         1.24736
C         31.54482        39.53275         0.71315
C         32.80307        41.72240         0.90818
C         31.53092        42.38858         0.80280
C         32.81657        44.61225         1.03004
C         31.49160        43.85095         1.00936
C         32.78101        46.05067         0.74749
C         31.54188        46.73325         0.68870
C         32.78764        48.85026         0.42315
C         31.56273        48.14404         0.53403
C         32.79328        50.28380         0.28120
C         31.54991        50.99028         0.08821
C         32.72742        53.12587         0.01049
C         31.58978        52.41594        -0.15538
C         35.43728        18.78943         0.28009
C         35.40222        20.19786         0.43280
C         34.15915        20.92684         0.31463
C         35.38369        23.04049         0.69961
C         34.14679        22.34142         0.47913
C         35.37616        24.46684         0.73896
C         34.15550        25.20231         0.60066
C         35.42787        27.32511         0.63404
C         34.17451        26.62644         0.56888
C         35.43388        28.77565         0.61727
C         34.19877        29.48936         0.53444
C         35.40458        31.60376         0.85033
C         34.19123        30.91515         0.63862
C         35.36811        33.04256         1.15979
C         34.05752        33.78793         1.08122
C         35.30176        35.96082         1.25579
C         34.10189        35.26357         1.02127
C         35.28709        37.39411         1.20671
C         34.02594        38.08621         1.10284
C         35.24697        40.14908         0.60944
C         34.01595        39.48370         0.99446
C         35.24157        41.70457         0.47162
C         33.98890        42.42972         0.75552
C         35.23698        44.57634         0.53136
C         34.05175        43.86758         0.74163
C         35.25767        46.00415         0.58301
C         34.02088        46.73181         0.61539
C         35.27279        48.85944         0.51242
C         34.03159        48.15312         0.49926
C         35.27051        50.29174         0.45860
C         34.02508        50.97827         0.33207
C         35.28233        53.21857         0.33041
C         33.98239        52.45808         0.38018
C         35.34715        54.62154        -0.11498
C         37.84349        18.73772         0.68516
C         36.61454        18.08491         0.39392
C         37.83778        20.16120         0.83781
C         36.61969        20.88893         0.70582
C         37.83271        23.03144         1.05420
C         36.60873        22.32460         0.81845
C         37.81170        24.44199         1.12960
C         36.60749        25.16836         0.90179
C         37.92355        27.27816         0.73562
C         36.62016        26.59409         0.79401
C         37.93362        28.81383         0.70842
C         36.63988        29.50005         0.75138
C         37.88937        31.60204         1.14548
C         36.64235        30.91022         0.90502
C         37.90740        33.08255         1.09306
C         36.62014        33.83468         1.03236
C         37.78378        35.97498         1.49037
C         36.58950        35.28327         1.35113
C         37.72526        37.45785         1.81759
C         36.49410        38.12955         1.26725
C         37.74335        40.20656         0.71700
C         36.52085        39.48744         0.90636
C         37.69743        41.62089         0.29067
C         36.49311        42.40326         0.52470
C         37.77410        44.58525         0.48780
C         36.49830        43.85992         0.11741
C         37.75160        46.00013         0.63227
C         36.50222        46.71417         0.58374
C         37.74917        48.84982         0.74085
C         36.50551        48.13901         0.60376
C         37.73349        50.30192         0.71182
C         36.52844        50.98991         0.52301
C         37.68522        53.26512         0.80786
C         36.58058        52.44943         0.12309
C         37.78501        54.63760         0.14821
C         36.55838        55.25743        -0.21687
C         40.31507        15.89892         0.64635
C         39.11712        16.59557         0.60370
C         40.28595        18.67813         1.34455
C         39.05799        17.99038         0.80571
C         40.30593        20.16444         1.11601
C         39.08304        20.87285         1.03719
C         40.32519        22.96640         1.29215
C         39.07957        22.29507         1.13389
C         40.34841        24.41435         1.58924
C         39.03501        25.18184         1.50806
C         40.33088        27.32221         1.38797
C         39.12250        26.61960         1.24050
C         40.33970        28.77834         1.36341
C         39.13684        29.49900         1.18517
C         40.34711        31.63339         1.79193
C         39.08494        30.91616         1.33449
C         40.37023        33.10571         1.47948
C         39.07030        33.81404         1.73487
C         40.27304        35.94481         1.25441
C         39.06476        35.29066         1.44019
C         40.29539        37.42749         1.27580
C         39.02043        38.20338         1.48611
C         40.21727        40.27039         0.74995
C         38.97831        39.57935         0.93679
C         40.24304        41.67405         0.60771
C         39.02693        42.42047         0.30594
C         40.21718        44.56589         0.79713
C         38.98461        43.88150         0.53321
C         40.21129        45.98884         0.90715
C         38.98238        46.71564         0.81200
C         40.21801        48.89153         1.24830
C         38.95886        48.14406         0.87398
C         40.21646        50.35096         0.84176
C         39.00139        51.02063         0.78706
C         40.29304        53.23292         0.64771
C         38.99802        52.49850         0.88338
C         40.26525        54.63583         0.19142
C         39.03058        55.32051         0.01017
C         40.26963        57.35043        -0.57405
C         39.07788        56.70170        -0.37847
C         42.79458        15.89941         0.61660
C         41.56341        16.59093         0.77162
C         42.80130        18.70072         0.99042
C         41.57468        17.98707         0.98185
C         42.79849        20.12693         1.11956
C         41.54405        20.84849         1.15689
C         42.83257        22.99050         1.52986
C         41.53706        22.27042         1.23406
C         42.81857        24.47649         1.23222
C         41.59786        25.17902         1.41696
C         42.84970        27.28861         1.57047
C         41.56354        26.58356         1.48951
C         42.85504        28.81826         1.50986
C         41.56957        29.51779         1.41899
C         42.79436        31.62901         1.07845
C         41.59221        30.91385         1.35890
C         42.78442        33.06288         0.95725
C         41.53655        33.77901         1.17408
C         42.68568        35.90581         0.65334
C         41.51948        35.23134         1.03769
C         42.62283        37.35041         0.34256
C         41.44999        38.13741         0.72276
C         42.70845        40.25730         0.57267
C         41.46045        39.52644         0.68822
C         42.70684        41.66809         0.73564
C         41.46259        42.40505         0.75386
C         42.70222        44.51061         1.26489
C         41.43763        43.80802         0.85363
C         42.66608        45.98606         0.96211
C         41.48349        46.70542         0.97552
C         42.68668        48.87935         0.83268
C         41.50275        48.16087         0.93317
C         42.71480        50.31819         0.66210
C         41.48335        51.04713         0.68354
C         42.73932        53.13011         0.22606
C         41.52115        52.44413         0.45930
C         42.73903        54.55337        -0.01107
C         41.49685        55.27452        -0.08896
C         42.74208        57.31503        -0.66454
C         41.50613        56.65671        -0.44787
C         43.99364        16.58326         0.65741
C         45.28832        18.71511         0.81571
C         44.03405        17.98964         0.82505
C         45.28629        20.12709         0.85390
C         44.03458        20.84827         1.01192
C         45.25501        22.96837         0.66188
C         44.03207        22.24451         1.01766
C         45.26405        24.47975         0.65857
C         44.02173        25.18825         1.03539
C         45.29692        27.31842         1.02705
C         44.07309        26.58805         1.17519
C         45.27387        28.75146         0.90421
C         44.05849        29.50113         1.02198
C         45.17594        31.62042         0.34306
C         43.98718        30.88959         0.80731
C         45.20233        33.09085         0.43026
C         43.96967        33.78360         0.63986
C         45.15380        35.92281         0.23066
C         43.94465        35.22117         0.49320
C         45.18832        37.36597         0.19866
C         43.92250        38.11636         0.16473
C         45.17912        40.23546         0.51250
C         43.93202        39.55820         0.43334
C         45.17076        41.63721         0.67052
C         43.95091        42.36521         0.76274
C         45.18186        44.47843         0.66952
C         43.97088        43.78790         0.86427
C         45.14044        45.93932         0.48158
C         43.95510        46.68483         0.99395
C         45.23989        48.87490         0.55339
C         43.98212        48.18071         0.91599
C         45.21764        50.28746         0.44728
C         43.95318        50.99861         0.46820
C         45.20983        53.11725         0.09704
C         43.96828        52.40885         0.25229
C         45.21035        54.52504        -0.10841
C         43.95673        55.24304        -0.21329
C         43.93069        56.63182        -0.53230
C         47.73402        18.71441         0.75085
C         46.53959        18.03245         0.76495
C         47.76895        20.13634         0.76568
C         46.52972        20.84482         0.80694
C         47.74598        22.99838         0.72763
C         46.53832        22.26505         0.75020
C         47.73977        24.44662         0.82294
C         46.55753        25.17536         0.83434
C         47.77084        27.34084         0.88799
C         46.53965        26.61430         0.94748
C         47.71845        28.76270         0.75268
C         46.50094        29.43883         0.67771
C         47.74336        31.65522         0.35780
C         46.49446        30.87049         0.31427
C         47.68304        33.07205         0.18321
C         46.41853        33.77463         0.23569
C         47.61938        35.90441        -0.08016
C         46.41263        35.21159         0.13806
C         47.58110        37.36583        -0.44461
C         46.37511        38.08268         0.09403
C         47.65166        40.18368         0.18503
C         46.42039        39.50976         0.27283
C         47.74540        41.60304         0.54645
C         46.43751        42.36680         0.78100
C         47.66063        44.51413         0.36962
C         46.42144        43.81319         0.55708
C         47.66922        45.92027         0.34601
C         46.42726        46.68945         0.29102
C         47.68830        48.85108         0.38764
C         46.44738        48.16276         0.46622
C         47.68679        50.27277         0.31163
C         46.44869        50.98485         0.30004
C         47.68275        53.11593         0.06426
C         46.45175        52.41331         0.15655
C         47.64906        54.51957        -0.10535
C         46.45059        55.19926        -0.20176
C         50.29248        20.19871         0.59150
C         48.99413        20.87514         0.68212
C         50.30247        22.99989         0.60552
C         48.96971        22.27207         0.66399
C         50.15979        24.46433         0.34417
C         49.05309        25.16453         1.06052
C         50.22216        27.32524         0.50961
C         49.01331        26.64359         0.77634
C         50.26589        28.78248         0.76104
C         48.96931        29.54141         0.81431
C         50.19463        31.68478         0.27627
C         48.96658        30.98963         0.49201
C         50.14587        33.09461         0.03215
C         48.89764        33.79287         0.04225
C         50.07643        35.93593        -0.38368
C         48.86998        35.22264        -0.14458
C         50.09047        37.38620        -0.45708
C         48.87943        38.10196        -0.27204
C         50.11613        40.23439        -0.26141
C         48.88065        39.49978        -0.14294
C         50.13866        41.65516        -0.19711
C         48.93516        42.38298         0.14483
C         50.08752        44.54183        -0.34496
C         48.89393        43.76733         0.16406
C         50.20641        45.90743         0.29498
C         48.92218        46.66443         0.52260
C         50.15348        48.80930         0.29378
C         48.93274        48.13332         0.40224
C         50.16781        50.25007         0.23527
C         48.93501        50.97382         0.23222
C         50.17982        53.06490         0.08447
C         48.94004        52.39526         0.13285
C         51.37716        20.83831         0.11478
C         52.53263        23.01419        -0.59354
C         51.22653        22.26377        -0.37400
C         52.45688        24.50558        -0.68068
C         51.11559        25.22289        -0.52564
C         52.54913        27.32020        -0.38366
C         51.34138        26.65744        -0.05763
C         52.71232        28.75394        -0.03032
C         51.52304        29.53720         0.47547
C         52.61458        31.66302        -0.19512
C         51.44709        30.98901         0.20299
C         52.57405        33.09056        -0.37248
C         51.35399        33.80555        -0.23154
C         52.51646        35.92492        -0.72737
C         51.32245        35.22934        -0.44245
C         52.48354        37.36130        -1.19612
C         51.29190        38.10448        -0.65606
C         52.56862        40.22660        -0.69296
C         51.32357        39.51588        -0.55309
C         52.59172        41.64100        -0.60259
C         51.36869        42.36567        -0.39553
C         52.60331        44.50193        -0.45495
C         51.39259        43.78390        -0.33294
C         52.62806        45.96600        -0.28125
C         51.43097        46.67750         0.03864
C         52.63582        48.80024         0.09874
C         51.40497        48.07839         0.15970
C         52.66178        50.22531         0.17256
C         51.40087        50.95699         0.17990
C         51.37593        52.36439         0.11715
C         54.72294        23.07358        -1.73785
C         53.64205        22.35807        -1.31126
C         54.79681        24.50424        -1.64816
C         53.49500        25.25491        -1.50174
C         54.84433        27.37168        -1.33104
C         53.64028        26.68035        -1.02720
C         54.91880        28.80708        -1.16727
C         53.82262        29.51221        -0.62932
C         54.98695        31.63165        -0.94088
C         53.82111        30.92893        -0.54496
C         54.96605        33.06971        -0.96246
C         53.75755        33.79408        -0.73541
C         54.89688        35.91968        -1.33474
C         53.73001        35.21921        -0.87575
C         55.00615        37.37693        -1.25628
C         53.80363        38.09082        -1.04625
C         55.04502        40.20015        -0.87802
C         53.80176        39.49744        -0.87984
C         55.05883        41.63734        -0.81882
C         53.82789        42.36918        -0.73614
C         55.06165        44.54388        -0.96556
C         53.81075        43.79515        -0.69775
C         55.08521        46.07722        -0.87063
C         53.83027        46.67429        -0.29400
C         55.09847        48.75166         0.17772
C         53.85607        48.07360        -0.00792
C         55.10076        50.13933         0.27551
C         53.90414        50.87036         0.21307
C         57.19732        24.55199        -2.26967
C         55.97634        25.22510        -1.91345
C         57.19029        27.38120        -2.12873
C         55.98927        26.66683        -1.81829
C         57.24497        28.80891        -2.02478
C         56.09353        29.51753        -1.56123
C         57.34841        31.62764        -1.75513
C         56.13527        30.93362        -1.43103
C         57.41709        33.07386        -1.44947
C         56.10565        33.76637        -1.39944
C         57.83762        36.14825        -1.70878
C         55.94723        35.10995        -1.77400
C         57.59508        37.41157        -1.15493
C         56.27112        38.07474        -1.18518
C         57.59420        40.18105        -0.95715
C         56.26114        39.46376        -0.96372
C         57.51468        41.62602        -0.54978
C         56.31486        42.31595        -0.70706
C         57.62245        44.47794        -0.52340
C         56.36408        43.78120        -0.84910
C         57.61992        45.95472        -0.51405
C         56.34812        46.63266        -0.27433
C         57.61268        48.63115         0.63097
C         56.29722        47.89379         0.53709
C         58.33167        25.24474        -2.58616
C         59.53743        27.38896        -2.85113
C         58.35767        26.67454        -2.53399
C         59.58252        28.76643        -2.75504
C         58.44832        29.50971        -2.33450
C         59.69868        31.70814        -2.46072
C         58.49592        30.94626        -2.17307
C         59.82974        33.03065        -2.18026
C         58.75633        33.79441        -1.52008
C         59.88979        35.84058        -0.52736
C         58.88628        35.28855        -1.33884
C         59.82997        37.19108        -0.17463
C         58.70312        37.99247        -0.46625
C         59.73936        40.11978         0.30887
C         58.68593        39.42177        -0.24359
C         59.80019        41.53502         0.27431
C         58.72306        42.30446        -0.16978
C         59.95050        44.47399         0.25850
C         58.75248        43.76631        -0.16152
C         60.02162        45.82557         0.31457
C         58.90241        46.66808        -0.12897
C         58.79744        48.05119         0.39971
O         25.74804        29.36643         0.34202
O         27.01110        41.84290         1.13141
O         38.14215        28.02265        -0.51349
O         26.95319        35.79117        -3.07448
O         45.54448        46.32858        -0.87088
O         56.90837        35.65359        -2.63286
O         35.15062        40.79905        -0.70758
O         43.03007        28.10862         2.78368
O         34.60590        33.30520         2.37878
O         43.11283        37.70416        -1.00222
O         52.97098        23.88708         0.51675
O         38.40799        41.96466        -0.95939
O         47.28166        41.91376         1.90255
O         39.60568        24.76521         2.80345
O         45.12248        23.75546        -0.61190
O         39.95891        38.03141         2.60695
O         58.27380        33.24898        -0.24047
O         39.77091        53.00621         2.02908
O         30.17954        23.61760         1.57306
O         34.61945        53.00648         1.60762
O         58.53579        46.56522        -1.54406
O         37.41278        33.58179        -0.18999
O         49.70566        29.19820         2.05270
O         55.77060        44.13209        -2.18194
O         45.73050        31.11157        -0.92563
O         32.13642        44.23875         2.27789
O         52.57699        29.10198         1.39842
O         29.46961        48.63071         1.74718
O         44.17422        47.46523         2.21652
O         49.71599        46.08130         1.64787
O         31.03569        37.95918         2.40168
H         31.62130        38.57359         2.91100
O         55.11275        46.58815        -2.24938
H         55.65162        45.94125        -2.76718
O         47.36539        37.38222        -1.91592
H         46.49809        36.95487        -2.08819
O         36.45858        43.83062        -1.35166
H         37.17189        43.20409        -1.63571
O         50.89985        22.89982         1.93313
H         50.39222        23.51624         2.51969
O         49.31922        25.04682         2.53651
H         49.86477        25.82121         2.79875
O         31.04754        31.62967        -2.08324
H         31.89953        32.10880        -2.16976
O         42.71839        44.44830         2.74793
H         42.01490        45.04729         3.07868
O         36.89077        52.46118        -1.29943
H         36.30344        51.82078        -1.75239
O         52.24692        37.28259        -2.65446
H         53.01652        36.81721        -3.04696
O         28.74476        43.50298         2.07451
H         28.62617        44.35352         2.54620
O         27.47983        24.26893         1.50261
H         28.29010        23.94315         1.96379
O         50.47336        25.30870        -1.83655
H         51.19110        25.41579        -2.51016
O         50.54291        22.23341        -1.65231
H         51.07665        21.70185        -2.27803
O         38.78134        33.71294         3.18483
H         39.34119        34.37255         3.64799
O         56.01203        47.45246         1.93172
H         55.76617        48.25052         2.44715
O         40.34260        31.51295         3.25912
H         39.62179        32.10851         3.58442
O         42.96946        22.93466         3.00539
H         42.14746        23.30859         3.39216
O         40.17379        18.53256         2.82569
H         40.17549        17.56971         3.01613
O         40.19221        48.92974         2.72901
H         40.95356        49.47474         3.02310
O         58.02944        40.22540        -2.37409
H         57.39773        40.80366        -2.85354
O         32.59826        40.22901         2.73604
H         31.94322        40.92410         2.96894
O         29.41707        42.75232        -1.44043
H         29.68848        41.92925        -1.89869
O         27.54827        27.56170         1.53365
H         26.72808        28.10976         1.56852
O         23.59562        46.78611         0.49122
H         23.50047        45.87311         0.83734
O         49.81133        44.84290        -1.75917
H         49.81658        43.99654        -2.25448
O         37.25168        53.50558         2.16203
H         38.06288        53.65496         2.69996
O         37.54926        37.53394         3.26552
H         38.45531        37.57830         3.65303
O         25.33730        33.88575        -4.10282
H         26.09969        34.51789        -4.10061
O         52.94182        25.32831        -2.87889
H         53.57910        25.83863        -3.42358
H         22.72909        26.85397        -2.84975
H         22.70944        29.29782        -2.96193
H         22.52719        31.21369        -2.59350
H         22.69268        33.53891        -3.21535
H         22.52921        35.31832        -2.22276
H         22.38700        37.72568        -1.81603
H         22.38321        39.68278        -2.07830
H         22.32264        42.11289        -1.97155
H         22.47489        44.00255        -2.29417
H         22.34600        46.43055        -2.12158
H         25.55767        23.52104        -0.96957
H         23.75404        24.73632        -2.12363
H         25.62305        49.79776        -1.42728
H         23.52795        48.59498        -1.82178
H         27.24365        22.70807        -1.07823
H         26.95783        50.83217        -0.35875
H         29.31498        21.50665        -0.94070
H         29.01704        52.04891        -0.13492
H         32.91996        19.17420        -0.10836
H         30.82163        20.40724        -0.23210
H         32.71259        54.21942        -0.08855
H         30.66445        52.94494        -0.41746
H         34.51661        18.23126         0.06846
H         34.42469        55.17654        -0.33430
H         36.58513        16.99482         0.27057
H         36.56175        56.29177        -0.58790
H         40.32440        14.81237         0.48147
H         38.20242        16.03258         0.37201
H         40.28207        58.41675        -0.84185
H         38.14613        57.26988        -0.49200
H         42.78300        14.81180         0.45643
H         42.74241        58.38065        -0.93477
H         44.92487        16.01622         0.52961
H         44.86915        57.17395        -0.70439
H         48.67163        18.14357         0.71814
H         46.56456        16.93504         0.75254
H         48.58214        55.09308        -0.17606
H         46.48046        56.28743        -0.34030
H         50.37245        19.15043         0.91374
H         50.21920        54.15982         0.01881
H         52.34722        20.32456         0.04285
H         52.31478        52.93186         0.07338
H         55.56863        22.52082        -2.17183
H         53.61697        21.26719        -1.45019
H         56.04215        50.69157         0.40094
H         53.96422        51.96544         0.26365
H         57.21782        23.45522        -2.30971
H         57.59471        49.64939         1.04873
H         59.24675        24.70823        -2.87602
H         60.43112        26.83044        -3.16490
H         60.52108        29.28214        -2.99655
H         60.53996        31.19743        -2.94961
H         60.73807        33.56838        -2.48994
H         60.73135        35.22020        -0.18981
H         60.67115        37.62683         0.38134
H         60.58541        39.58059         0.75830
H         60.71468        42.01309         0.64761
H         60.81689        43.89079         0.59713
H         60.90771        46.31662         0.74443
H         59.73308        48.60140         0.58756
