         261
 CSIRO Nanostructure Databank - Neutral Graphene Oxide Data Set
C        -10.79311         0.79017         1.65380
C         -9.70643         1.59663         1.01823
C         -8.52363         0.86265         0.49248
C         -7.69136         1.45990        -0.65406
C         -6.29077         0.80817        -0.70795
C         -5.15086         1.50160        -1.44884
C         -3.81607         0.77675        -1.33793
C         -2.55933         1.50419        -0.97149
C         -1.63636         0.78409         0.00506
C         -0.31413         1.54426         0.36253
C          0.97478         0.77716         0.66778
C          2.26102         1.57050         0.97757
C          3.55643         0.80852         1.12441
C          4.90081         1.51359         1.03059
C          6.17410         0.73864         1.06490
C          7.43968         1.33690         0.54382
C          8.70538         0.61657         0.83806
C         10.04125         1.35225         0.84432
C         10.96342         0.44145         0.03558
C         -9.99485         2.96365         0.40769
C         -8.68751         3.70744         0.19240
C         -7.64748         3.00496        -0.62072
C         -6.43613         3.78021        -1.07181
C         -5.17381         3.01607        -1.50103
C         -3.84001         3.74561        -1.46668
C         -2.58470         3.01495        -1.04215
C         -1.45093         3.79364        -0.43016
C         -0.25575         3.03678         0.13340
C          1.06129         3.79677         0.26030
C          2.28606         3.07270         0.75025
C          3.63694         3.74104         0.64558
C          4.92342         2.98225         0.68460
C          6.17858         3.59308         0.10148
C          7.45240         2.79492         0.15233
C          8.77330         3.48332         0.15286
C          9.91941         2.79568         0.37399
C         -8.49854         4.97512         0.63630
C         -7.28339         5.75134         0.40886
C         -6.37420         5.32211        -0.74888
C         -4.95130         5.83607        -0.53190
C         -3.86453         5.26181        -1.39393
C         -2.55426         5.97253        -1.40743
C         -1.36522         5.23970        -0.81441
C         -0.00620         5.87332        -0.92302
C          1.19659         5.11051        -0.47038
C          2.50643         5.87691        -0.35688
C          3.66736         5.22655         0.32070
C          4.98557         5.92359         0.32830
C          6.21832         5.12640        -0.19816
C          7.55977         5.80788         0.08367
C          8.80918         4.96871        -0.22536
C         -7.07827         6.92867         1.06280
C         -5.80000         7.73941         1.07064
C         -4.69365         7.08595         0.24206
C         -3.57305         8.01098        -0.19563
C         -2.52243         7.46083        -1.10620
C         -1.18369         8.06207        -1.48689
C          0.03508         7.39528        -0.86163
C          1.29853         8.15754        -0.57868
C          2.57912         7.36065        -0.58539
C          3.90544         8.08628        -0.53507
C          5.09422         7.40725         0.06110
C          6.43267         8.06106         0.12291
C          7.63285         7.16416         0.14049
C         -5.91066         9.21383         0.74421
C         -4.80830         9.95895         0.56529
C         -3.41214         9.34029         0.57454
C         -2.38777        10.22371        -0.12864
C         -1.06507        10.14683        -0.05239
C          0.23496        10.39748         0.01746
C          1.38181         9.72077        -0.76251
C          2.71772        10.24271        -0.25673
C          3.98286         9.65665        -0.57304
C          5.33502        10.24797        -0.34759
C          6.46457         9.50994        -0.23817
C        -10.86793        -0.54910         1.56204
C         -9.91992        -1.33967         0.68002
C         -8.56911        -0.64372         0.63613
C         -7.42517        -1.42726         0.11579
C         -6.23451        -0.67122        -0.41769
C         -5.12945        -1.48179        -1.01704
C         -3.86608        -0.72790        -1.25599
C         -2.53910        -1.42797        -1.14018
C         -1.45411        -0.70906        -0.36150
C         -0.17030        -1.45026        -0.11027
C          1.06225        -0.69457         0.33918
C          2.40953        -1.32598         0.09315
C          3.61518        -0.63228         0.63849
C          4.79594        -1.45505         1.11467
C          6.11064        -0.75711         1.26206
C          7.40041        -1.53857         1.32585
C          8.69802        -0.80123         1.35936
C         10.03431        -1.54050         1.24976
C         10.92034        -0.89385         0.19666
C         -9.78424        -2.82800         1.00099
C         -8.72184        -3.57284         0.61256
C         -7.57045        -2.91117        -0.07390
C         -6.30607        -3.67766        -0.28926
C         -5.09675        -2.98471        -0.85711
C         -3.80629        -3.72100        -1.03538
C         -2.51627        -2.92925        -1.11570
C         -1.27069        -3.68545        -0.72352
C         -0.01801        -2.92059        -0.48183
C          1.31288        -3.53846        -0.78926
C          2.52704        -2.80976        -0.23728
C          3.70369        -3.60614         0.24076
C          4.78561        -2.97104         1.07683
C          6.07126        -3.72403         1.27746
C          7.36466        -3.00320         0.94001
C          8.66193        -3.73071         1.22851
C          9.86286        -3.04494         1.19081
C         -8.75980        -5.10587         0.50912
C         -7.38556        -5.78597         0.70004
C         -6.13662        -4.99667         0.40317
C         -4.79625        -5.69075         0.36887
C         -3.65059        -5.08822        -0.40034
C         -2.49953        -5.86345        -1.01311
C         -1.24097        -5.08980        -1.23648
C          0.08467        -5.80613        -1.33942
C          1.36309        -5.02080        -1.05908
C          2.37930        -5.84742        -0.23635
C          3.62477        -5.10690         0.27829
C          4.92124        -5.82951         0.47661
C          6.22437        -5.04686         0.55004
C          7.41190        -5.88348         1.01306
C          8.60144        -5.15681         1.28735
C         -7.27240        -7.27159         0.57085
C         -6.07040        -7.92462         0.55686
C         -4.84273        -7.13139         0.88034
C         -3.57424        -8.18520        -0.96213
C         -2.37450        -7.32910        -0.72427
C         -1.05154        -8.03527        -0.68719
C          0.13611        -7.30079        -1.23440
C          1.47486        -8.00320        -1.25523
C          2.69050        -7.20206        -0.89136
C          3.95391        -7.95963        -0.59834
C          4.96095        -7.32611         0.30802
C          6.19834        -8.08144         0.67035
C          7.39402        -7.27620         0.99592
C         -5.92939        -9.37667         0.37495
C         -4.81966       -10.09589         0.02802
C         -3.52150        -9.55524        -0.39178
C         -2.32383       -10.21696        -0.36412
C         -0.94640        -9.55688        -0.48629
C          0.13295       -10.15929        -1.44635
C          1.48814        -9.48712        -1.19125
C          2.65559       -10.14786        -0.96426
C          3.96002        -9.46088        -0.73465
C          5.14898       -10.17417        -0.17633
C          6.23572        -9.52600         0.29904
O          6.65614         2.89838        -1.07961
O          5.69893         1.40306         2.26343
O         -8.43379         1.57243         1.75796
O         -2.73311         0.99429        -2.31122
O          0.78164         5.11154        -1.87610
O         -3.29222         5.77130        -2.63973
O          5.18530        -3.54529         2.37196
O          3.31469        -0.58814        -0.79634
O          0.83501        -0.23517         1.70149
O          5.56554         7.99007         1.32713
O          4.40323         3.60519         1.88592
O         -3.97040        -7.57000         1.60665
O         -1.63608        -7.48854         0.53078
O         -1.79262         4.84220         0.53092
O         -3.64903         8.19475        -1.64313
O          4.20626         5.85575         1.54132
O         -7.34385        -3.57597        -1.35251
O         -4.71950        -3.63365        -2.13175
O         -2.15483        -5.37669        -2.32964
O         -6.66500        -5.10166         1.77002
O          5.25495        -1.02575         2.41511
O         -5.77319         0.32276         0.56044
O          4.00898        -5.56271         1.59996
O          4.05660         8.78156        -1.76334
O          8.05404        -1.19104         2.60169
O         -4.72689        -1.13429        -2.36680
O          1.64141        -4.07460        -2.11010
O         -0.00115        -6.64159        -2.53412
O          6.08824         5.29939        -1.57245
O         -6.92362         6.04393        -1.80153
O          2.31756        -7.35899        -2.27260
O          2.78514         6.41935        -1.68493
O         -0.70300        -3.67447         0.60608
O          1.45809         3.86915         1.65337
O         -1.21359        -1.38311         0.90510
O          5.06167        -7.91856         1.63909
O          2.78714         1.16355         2.28077
O          8.09352         0.55534        -0.50330
O         -7.59681        -1.17352         1.56230
O          3.69031        -3.04885        -1.09219
O         -2.84026         3.37360        -2.43461
O          0.39703         7.79270         0.50163
O         -7.54090         3.52492        -1.98416
O         -4.39627         5.78142         0.84135
O         -4.49909        -7.78115        -1.65851
O         -0.61085         2.47840         1.42925
O          6.61046        -4.50408        -0.78127
O         -5.41764         2.18975        -2.68098
O         -1.06775         8.79098        -2.46113
O          7.21155        -3.12915        -0.54471
O         -2.19716        -2.17574        -2.33129
O         -3.71011        -4.96034         1.04171
O          4.46374        -8.57100        -1.81115
O         -9.29527        -5.44223        -0.77224
H         -8.78068        -4.94080        -1.44818
O         -2.43159         0.78241         1.20317
H         -1.92784         0.31282         1.90607
O          1.59356        -6.15857         0.94265
H          2.21051        -6.24336         1.70914
O         -8.37797         1.09604        -1.86818
H         -8.02825         1.68258        -2.58263
O         -0.24586        -9.95034        -2.80437
H          0.11171        -9.09632        -3.12762
O         10.53563         1.43405         2.19703
H         10.78488         0.51990         2.49013
O         -2.98390         9.07479         1.90928
H         -3.73440         8.63445         2.38466
O         -0.36216        -9.73655         0.82723
H         -0.87620        -9.17329         1.45087
O          9.96900         5.59092         0.31308
H          9.96817         5.47715         1.28557
O        -10.44118        -1.26699        -0.67631
H        -11.32218        -1.69521        -0.69621
O        -10.65567         2.78221        -0.84927
H        -10.05719         2.27672        -1.44731
O          1.32119        10.02937        -2.15515
H          0.45809         9.69919        -2.51834
O         10.70649        -1.30865         2.53240
H         10.04399        -1.51203         3.23282
O         -5.31995         7.68009         2.45369
H         -5.05914         6.74441         2.61672
H         11.58913        -1.54401        -0.38730
H         11.65205         0.88252        -0.70125
H         10.86660         3.35978         0.35056
H          8.90783         5.00836        -1.34541
H          8.62479         7.64281         0.17892
H          7.43843        10.02268        -0.22130
H          5.41303        11.34030        -0.45623
H          2.71190        11.07409         0.46679
H          0.55460        11.15155         0.76203
H         -2.79976        10.91317        -0.89005
H         -4.90305        11.03937         0.37557
H         -6.90757         9.67830         0.72519
H         -7.81729         7.22785         1.82501
H         -9.28977         5.45506         1.23556
H        -10.67448         3.55884         1.06652
H        -11.54291         1.34079         2.24420
H        -11.68861        -1.08650         2.06332
H        -10.67066        -3.33234         1.42084
H         -9.45935        -5.51655         1.28094
H         -8.20382        -7.82528         0.37099
H         -6.84350        -9.95825         0.58152
H         -4.90779       -11.19445         0.04948
H         -2.30245       -11.25131         0.01937
H          0.20941       -11.26020        -1.26584
H          2.64930       -11.24724        -0.89327
H          5.18978       -11.26599        -0.31206
H          7.13304       -10.09799         0.57970
H          8.32769        -7.81174         1.22977
H          9.52284        -5.71409         1.51542
H         10.79170        -3.62958         1.29107
