         349
 CSIRO Nanostructure Databank - Neutral Graphene Oxide Data Set
C          1.23236         3.37875        -0.09789
C          0.00298         4.07304        -0.15682
C          1.15602         6.20898         0.43867
C         -0.06305         5.43318         0.01821
C          1.14210         7.69752         0.13876
C         -0.06852         8.41351         0.06749
C          1.11379        10.55113         0.11518
C         -0.08066         9.79703        -0.01104
C          1.11340        11.99495         0.03110
C         -0.09011        12.69813        -0.35423
C          0.95979        14.88913         0.19098
C         -0.16252        14.04914        -0.35366
C          1.00774        16.29429        -0.44803
C         -0.22567        17.13393        -0.22189
C          0.99881        19.26610         0.02554
C         -0.20332        18.49559        -0.07570
C          1.04588        20.69956         0.03268
C         -0.17040        21.49659         0.08970
C          1.07642        23.61921         0.20159
C         -0.14421        22.85046         0.25718
C          1.12506        24.99096         0.39663
C         -0.03788        25.79401         0.68140
C          1.29778        27.86038         0.81124
C          0.03624        27.14922         0.82278
C          1.34503        29.26108         0.99695
C          3.72277         3.41843        -0.05768
C          2.45410         4.10239        -0.02031
C          3.71627         6.23115        -0.23216
C          2.42431         5.50730         0.05292
C          3.65930         7.74275         0.01449
C          2.34694         8.42394         0.18159
C          3.53797        10.57464         0.71040
C          2.33190         9.83533         0.28125
C          3.56650        12.08652         0.59667
C          2.30716        12.75514         0.17613
C          3.54144        14.86973         0.07388
C          2.29414        14.15632         0.11218
C          3.52486        16.25504        -0.06234
C          2.24683        17.00064         0.07163
C          3.55448        19.21175         0.21636
C          2.24281        18.49164         0.22160
C          3.55323        20.71183         0.13301
C          2.26558        21.39632         0.00250
C          3.61458        23.49818         0.06031
C          2.29560        22.87302        -0.31128
C          3.62919        24.89271         0.59678
C          2.43258        25.71800         0.13599
C          3.75671        27.80313         0.78299
C          2.50335        27.14774         0.65461
C          3.79020        29.23828         0.83016
C          2.55773        29.92770         0.92931
C          6.15786         3.42293         0.19495
C          4.91886         4.08370         0.20626
C          6.16810         6.28615         0.47606
C          4.84536         5.55333         0.58151
C          6.16378         7.66451         0.57154
C          4.91498         8.44487         0.42364
C          6.14326        10.65807         0.93920
C          4.85274         9.86405         0.90489
C          6.12200        12.08852         0.52274
C          4.86902        12.77952         0.42186
C          6.04051        14.86762        -0.12279
C          4.82634        14.15734         0.08917
C          6.03185        16.28300        -0.34826
C          4.74386        16.98477        -0.39091
C          6.03645        19.21805        -0.28467
C          4.74813        18.51287        -0.33898
C          6.02369        20.67229        -0.28850
C          4.81517        21.38969        -0.21912
C          6.08165        23.53295        -0.19863
C          4.81878        22.82139        -0.13912
C          6.11996        24.93368        -0.00732
C          4.92039        25.62391         0.32816
C          6.26460        27.53598         0.79609
C          4.95975        26.97888         0.65354
C          6.25074        29.72597         0.89114
C          4.97149        30.07367         0.57438
C          8.60532         3.40328         0.24124
C          7.39528         4.11525         0.30651
C          8.63611         6.26806         0.33014
C          7.40401         5.55788         0.42273
C          8.65901         7.67508         0.37720
C          7.43098         8.39786         0.73453
C          8.77211        10.66506         0.76475
C          7.45471         9.88922         0.91554
C          8.63072        12.06111         0.16022
C          7.32672        12.72866         0.15555
C          8.46706        14.81927        -0.49659
C          7.29863        14.14587        -0.15592
C          8.48765        16.28793        -0.78602
C          7.21336        17.02904        -0.44996
C          8.48586        19.19269        -0.22369
C          7.20859        18.46004        -0.37275
C          8.51045        20.67643        -0.38163
C          7.23830        21.41143        -0.47603
C          8.55480        23.54158        -0.60126
C          7.28798        22.81445        -0.44147
C          8.53434        24.98134        -0.58173
C          7.35096        25.66249        -0.24493
C          8.52364        27.94741        -0.20441
C          7.37077        27.06172         0.10807
C          8.59718        29.40813         0.16116
C          7.54888        30.23061         0.46698
C         11.06352         3.35126         0.24284
C          9.87266         4.05696         0.23795
C         11.04970         6.20219        -0.06640
C          9.88478         5.52839         0.18019
C         11.02564         7.65824        -0.34089
C          9.82543         8.44473         0.04948
C         11.02027        10.56999        -0.56973
C          9.86111         9.82827         0.08252
C         11.12265        12.02115        -0.06278
C          9.77722        12.71119        -0.23768
C         11.00076        14.88322        -0.93554
C          9.68639        14.05204        -0.95305
C         11.02072        16.24203        -0.46345
C          9.74401        16.92708        -0.20488
C         11.05824        19.06217        -0.70221
C          9.77004        18.42747        -0.18235
C         11.05316        20.60072        -0.83024
C          9.76208        21.37019        -0.80244
C         11.05304        23.50635        -1.02885
C          9.75802        22.84450        -0.75616
C         11.05537        25.01882        -1.11944
C          9.69701        25.76137        -1.19008
C         11.06815        27.88277        -0.48905
C          9.75555        27.25005        -0.77440
C         11.10503        29.25614        -0.20369
C          9.86137        30.09328        -0.34886
C         13.63753         3.35468         0.14649
C         12.35564         4.10272         0.42954
C         13.57881         6.20340         0.02385
C         12.32371         5.42901        -0.34195
C         13.57337         7.67999        -0.11527
C         12.31669         8.39259        -0.46032
C         13.54911        10.51496        -0.39974
C         12.34924         9.86468        -0.39480
C         13.61537        11.96225        -0.82111
C         12.32106        12.70641        -0.67012
C         13.61287        14.85429        -0.48065
C         12.36794        14.12885        -0.85529
C         13.58448        16.24876        -0.26319
C         12.27884        16.92932        -0.11546
C         13.54797        19.22772        -0.05449
C         12.26921        18.44982        -0.02422
C         13.52747        20.63243        -0.52265
C         12.34705        21.33625        -0.70819
C         13.51325        23.52406        -0.71872
C         12.33501        22.78370        -0.79148
C         13.49759        24.97586        -0.57725
C         12.29542        25.71031        -0.70017
C         13.50783        27.78273        -0.17466
C         12.27467        27.11393        -0.43621
C         13.52110        29.18439         0.12883
C         12.31355        29.89033         0.12679
C         16.10722         3.32864        -0.05369
C         14.83807         4.02110         0.02166
C         16.05690         6.16945        -0.16323
C         14.87605         5.47786        -0.05707
C         16.09109         7.63102        -0.57094
C         14.83292         8.41330        -0.30584
C         16.08018        10.52803        -0.30155
C         14.81805         9.78371        -0.34841
C         16.02524        11.97530        -0.17190
C         14.85259        12.68814        -0.33646
C         16.02253        14.87597        -0.10385
C         14.82397        14.13912        -0.27710
C         16.01968        16.28317        -0.19126
C         14.79707        16.97912        -0.15614
C         16.11201        19.18707        -0.31148
C         14.84182        18.46274        -0.04012
C         16.10295        20.59778        -0.47927
C         14.82143        21.27743        -0.77235
C         16.08075        23.48737        -0.56495
C         14.80823        22.82441        -0.85819
C         15.98366        24.88488        -0.01566
C         14.72897        25.67004        -0.34329
C         16.03186        27.83873        -0.31072
C         14.73230        27.06022        -0.18840
C         15.99101        29.28306         0.16397
C         14.75987        29.86460         0.39123
C         18.58068         3.31017        -0.07127
C         17.30125         4.00674        -0.12962
C         18.52988         6.14857        -0.17017
C         17.32936         5.46417        -0.16849
C         18.57339         7.60395         0.08854
C         17.28898         8.37825        -0.03226
C         18.57612        10.56240        -0.11410
C         17.28042         9.85313        -0.18760
C         18.55496        11.98462         0.24973
C         17.24856        12.64915         0.30844
C         18.55583        14.84240         0.25764
C         17.25696        14.17996         0.29540
C         18.60923        16.26187        -0.11548
C         17.30157        17.01288        -0.33419
C         18.56266        19.18483        -0.18544
C         17.32337        18.48667        -0.25270
C         18.55780        20.61758        -0.27524
C         17.31576        21.32651        -0.50488
C         18.56998        23.52554        -0.53777
C         17.27342        22.78506        -0.52771
C         18.58681        25.05462        -0.44438
C         17.25591        25.68349        -0.09175
C         18.38416        27.53590         0.93098
C         17.21724        27.01835         0.16280
C         18.45769        29.71221        -0.13600
C         17.18495        30.07037         0.31963
C         19.75694         3.96507        -0.15254
C         21.00748         6.13745         0.17412
C         19.83173         5.44077        -0.45462
C         21.02126         7.50469         0.34735
C         19.86506         8.29807         0.17473
C         20.98294        10.55757         0.70685
C         19.89185         9.77756         0.11054
C         20.92615        11.91295         0.81592
C         19.72396        12.67689         0.55321
C         20.92355        14.90860         0.74921
C         19.72658        14.14348         0.57199
C         20.93477        16.29488         0.64891
C         19.81072        17.03311         0.21794
C         20.96880        19.21277         0.27166
C         19.78822        18.46592         0.08052
C         20.96297        20.59890         0.18724
C         19.79056        21.31215        -0.09559
C         21.04081        23.54885         0.11790
C         19.85481        22.77802        -0.31315
C         21.00001        24.89680         0.34074
C         19.80071        25.66316         0.25431
C         20.84966        27.92257         0.63821
C         19.74657        27.04485         0.55768
C         20.76850        29.33555         0.73923
C         19.67310        30.16029         0.50267
O          8.54979        20.08426         0.96812
O          5.43312        10.26213         2.16171
O          8.85958        27.98390        -1.65599
O         14.27459        19.02998         1.20805
O          2.11636        17.58520         1.40257
O          4.51060        17.83139        -1.60643
O          7.55086         9.03363         2.10876
O         19.48170        10.25415        -1.22899
O         11.61468         7.93906        -1.69989
O          4.46589         8.45169        -1.01105
O          9.72449        17.65534         1.05833
O          3.29794        11.42688         1.88188
O          3.76685        19.96448         1.42865
O         18.07787        16.52028        -1.48508
O         18.19271        28.13095         1.98768
O         19.38933        23.09792        -1.69255
O         12.13318        17.68487         1.17189
O         14.85750        21.98417        -2.05090
O         17.04780        13.41154         1.54061
O         10.33802        20.91762        -2.08998
O         11.19464        24.20638        -2.33448
O         11.80033        14.64126        -2.15359
O         17.71321         7.96315         1.29174
O          6.40683        28.58528         1.69890
O         13.47032         7.03221         1.22381
O         12.36867         5.15671        -1.76182
H         12.08453         5.98146        -2.22124
O          9.32715        25.80747        -2.59280
H          9.72308        25.00936        -3.01886
O          2.23032        23.00099        -1.78500
H          2.34701        23.96601        -1.97380
O         16.22289        27.90455        -1.76610
H         15.49587        28.45000        -2.13351
O         16.26947         7.61946        -2.02598
H         15.45649         7.25610        -2.43592
O         18.57301        28.86423        -1.17894
H         19.51104        28.64321        -1.34717
O         18.76819        25.54130        -1.81980
H         19.22917        24.81630        -2.30934
O          9.22309        10.89379         2.13798
H          8.91187        10.11277         2.66174
O          9.42270        13.75187        -2.36684
H         10.30649        13.62530        -2.79114
O          8.65852        16.44400        -2.24049
H          8.80820        15.54456        -2.62716
O         11.20436        18.56659        -2.06614
H         10.71589        19.18145        -2.66433
O         10.05372        31.36229         0.27088
H          9.59266        32.04846        -0.24922
O          1.14562         6.17231         1.93147
H          1.31535         5.24361         2.20075
O         20.04487         5.54569        -1.91471
H         19.25217         5.16886        -2.35289
O         15.86624        24.62861         1.44769
H         15.76524        25.49690         1.89578
O         12.39519         4.47413         1.84415
H         12.47409         3.65311         2.37251
O          4.43778         5.63359         1.97406
H          5.18421         5.32774         2.53069
O         10.73877        10.63829        -1.99303
H         10.89582         9.73369        -2.35405
O          0.68771        15.10455         1.60378
H          0.77481        14.24520         2.06722
O          3.99039         6.01665        -1.63568
H          4.41773         6.84161        -1.96949
O         13.79346        11.87276        -2.29641
H         13.55452        12.74485        -2.67990
O         11.48722        12.01278         1.34515
H         10.73497        11.63238         1.87251
O          3.50699        24.78184         2.05195
H          4.23976        24.21786         2.37795
O          2.55388        25.81621        -1.32506
H          1.86041        26.43505        -1.63877
O          1.15778        16.08516        -1.87447
H          1.18973        16.95726        -2.31989
H          1.25432         2.28506        -0.19740
H         -0.91917         3.50522        -0.34930
H         -1.04390         5.92732         0.02380
H         -1.02676         7.87790         0.05510
H         -1.04880        10.30545        -0.10443
H         -0.96243        12.12066        -0.68983
H         -1.09424        14.54699        -0.65826
H         -1.20259        16.63137        -0.28179
H         -1.16919        19.02052        -0.02943
H         -1.14016        20.98126         0.11458
H         -1.09587        23.37412         0.42797
H         -1.01748        25.30384         0.77143
H         -0.87936        27.72980         1.00829
H          0.40938        29.82235         1.13176
H          3.73414         2.33518        -0.25300
H          2.57280        31.02625         0.97599
H          6.18002         2.33841         0.00539
H          4.78874        31.02046         0.04381
H          8.57581         2.30438         0.18995
H          7.71399        31.32020         0.42911
H         11.04973         2.25129         0.29962
H          9.71322        30.26326        -1.45591
H         13.63229         2.25318         0.17978
H         12.30314        30.96384         0.36098
H         16.10915         2.22949         0.00742
H         14.70932        30.92707         0.67397
H         18.56248         2.21960         0.07932
H         17.12349        30.92934         1.00447
H         20.70419         3.40694        -0.10117
H         21.92756         5.55845         0.34075
H         21.96802         7.99391         0.62387
H         21.86759        10.02344         1.08272
H         21.79839        12.43915         1.22863
H         21.85810        14.39985         1.02017
H         21.87308        16.81730         0.88116
H         21.91934        18.70328         0.47466
H         21.91287        21.13086         0.32458
H         21.98952        23.02037         0.27963
H         21.91261        25.39630         0.69913
H         21.86323        27.49031         0.61823
H         21.68698        29.83721         1.08813
H         19.69255        31.17910         0.91863
