         288
 CSIRO Nanostructure Databank - Neutral Graphene Oxide Data Set
C        -11.05592         0.66047        -0.77622
C         -9.86758         1.41724        -0.40905
C         -8.57123         0.63770        -0.18293
C         -7.54927         1.42056         0.66504
C         -6.27944         0.68397         1.08874
C         -4.96219         1.51301         1.23923
C         -3.68243         0.65401         1.09549
C         -2.30635         1.38910         0.96568
C         -1.24987         0.75042         0.05431
C          0.07576         1.38996         0.58043
C          1.33143         0.63432         0.26121
C          2.49385         1.44339        -0.23218
C          3.79717         0.69865        -0.30967
C          5.09340         1.42101        -0.27223
C          6.32661         0.78922        -0.85797
C          7.60133         1.53782        -0.70672
C          8.91256         0.76620        -0.81679
C         10.13783         1.54258        -0.35732
C         11.35283         0.72686        -0.34236
C         -9.83450         2.76730        -0.51961
C         -8.51888         3.50444        -0.56592
C         -7.51643         2.88835         0.42007
C         -6.19614         3.59875         0.35270
C         -4.91837         2.84173         0.48383
C         -3.64171         3.66681         0.54369
C         -2.27790         2.97884         0.57853
C         -1.17798         3.62789         1.42708
C          0.13528         2.91279         0.92635
C          1.31115         3.69682         0.41478
C          2.44655         2.94067        -0.24824
C          3.77196         3.67062        -0.36474
C          5.06701         2.92223        -0.37922
C          6.35673         3.67151        -0.17071
C          7.65159         2.94614        -0.22284
C          8.88905         3.66927        -0.72680
C         10.13031         2.90726        -0.30342
C         -8.69728         5.01661        -0.32330
C         -7.40305         5.80679        -0.12545
C         -6.24026         5.09828         0.49110
C         -4.99973         5.87193         0.82151
C         -3.67722         5.14639         0.76658
C         -2.44629         5.92007         1.21572
C         -1.11458         5.17555         1.32529
C          0.15173         5.91104         0.96773
C          1.14203         5.18528         0.03809
C          2.48359         5.92795        -0.17261
C          3.78641         5.18331        -0.22158
C          5.13124         5.73399         0.36792
C          6.31155         5.15406        -0.45821
C          7.64142         5.86093        -0.35681
C          8.81285         5.16155        -0.45389
C         -7.36875         7.14343        -0.33367
C         -6.23662         8.02071         0.17624
C         -4.93405         7.24438         0.19996
C         -3.61891         7.93536         0.03852
C         -2.45640         7.37987         0.82230
C         -1.17424         8.17818         0.85128
C          0.11732         7.42716         0.94261
C          1.40001         8.16027         0.70590
C          2.55801         7.40640         0.12687
C          3.56058         8.25619        -0.61485
C          5.36156         7.24022         0.67902
C          6.38877         7.99939        -0.09473
C          7.54832         7.32111        -0.39215
C         -6.06778         9.35284        -0.51750
C         -4.89264         9.96599        -0.72476
C         -3.51725         9.35857        -0.52594
C         -2.52268        10.24879         0.25255
C         -1.15246         9.58292         0.34359
C          0.02482        10.23404         0.17567
C          1.33502         9.69539         0.75216
C          2.64807        10.33737         0.33162
C          3.73870         9.63959        -0.09412
C          5.09533        10.18044        -0.19454
C          6.24774         9.44707        -0.23495
C        -11.11143        -0.68393        -0.78293
C        -10.08336        -1.56701        -0.12785
C         -8.83819        -0.78718         0.35001
C         -7.63597        -1.56492         0.80659
C         -6.30504        -0.84099         1.11027
C         -5.02205        -1.70724         1.30848
C         -3.70211        -0.86635         1.05070
C         -2.36712        -1.61770         0.71015
C         -1.24072        -0.79754         0.00120
C          0.03848        -1.54022        -0.29212
C          1.38580        -0.89157        -0.02269
C          2.45665        -1.39782        -0.97664
C          3.78295        -0.66275        -0.95008
C          5.07911        -1.38658        -1.16373
C          6.46590        -0.73626        -1.04783
C          7.38945        -1.26799         0.08361
C          8.79216        -0.60362        -0.08417
C         10.06872        -1.37748        -0.07214
C         11.31433        -0.62918        -0.37730
C         -9.66418        -2.78367        -0.97072
C         -8.76893        -3.69861        -0.17600
C         -7.63754        -3.06206         0.58115
C         -6.33855        -3.80925         0.52074
C         -5.01623        -3.11661         0.69010
C         -3.78861        -3.75657         0.11454
C         -2.54636        -2.89384        -0.16193
C         -1.19672        -3.78141        -0.06845
C          0.07461        -3.03124        -0.42458
C          1.18944        -3.65448        -0.89730
C          2.42556        -2.87341        -1.25750
C          3.73193        -3.60792        -1.02531
C          5.07249        -2.88713        -1.11377
C          6.27493        -3.56293        -0.50936
C          7.46043        -2.81680         0.13554
C          8.80789        -3.49601        -0.02178
C         10.00136        -2.85420         0.01310
C         -8.82781        -5.05048        -0.33494
C         -7.62741        -5.86278        -0.10690
C         -6.41366        -5.00689        -0.42972
C         -5.13694        -5.84721        -0.56763
C         -3.89105        -5.01933        -0.79992
C         -2.61671        -5.84618        -0.41762
C         -1.38671        -5.04970        -0.94099
C         -0.09202        -5.87362        -1.05149
C          1.20423        -5.13568        -1.14560
C          2.51716        -5.89645        -1.06509
C          3.73779        -5.09100        -0.75235
C          5.09799        -5.81092        -0.78548
C          6.06993        -4.96595         0.07751
C          7.43089        -5.65500         0.36040
C          8.35169        -4.56258         0.95630
C         -7.57271        -7.19122         0.16027
C         -6.28043        -7.93893         0.45298
C         -5.08650        -7.31228        -0.25395
C         -3.80485        -8.03553        -0.30839
C         -2.59207        -7.36025        -0.64944
C         -1.37924        -8.02401        -0.48739
C         -0.09337        -7.27841        -0.52435
C          1.21586        -8.00454        -0.37714
C          2.52867        -7.37286        -0.79959
C          3.79574        -8.08232        -0.35210
C          5.16651        -7.32073        -0.29995
C          5.95257        -7.57111         0.99301
C          7.07411        -6.83200         1.25726
C         -6.29405        -9.42191         0.14493
C         -5.15323       -10.10674        -0.07496
C         -3.83302        -9.46171        -0.13435
C         -2.64652       -10.15554        -0.06032
C         -1.33787        -9.42527         0.08828
C         -0.10110       -10.21563        -0.39953
C          1.18862        -9.47130        -0.09387
C          2.28140       -10.02082         0.47952
C          3.61581        -9.34167         0.44309
C          4.63740        -9.63389         1.47474
C          5.66448        -8.79160         1.73865
O         -4.11922        -3.98751         1.48979
O          0.47106         5.22877        -1.23749
H          1.06732         4.85647        -1.92416
O         -0.81549        -1.11419        -1.37436
O          6.11786        -3.47260        -1.93823
O         -6.49255        -0.03881         2.33008
O         -7.99066         0.55334        -1.46219
O          7.08654         3.32140         1.04882
O          2.48012         7.67245         1.55490
O         -2.80961         6.93314         2.18164
O          0.51562        -5.63504        -2.35202
O          4.57199         0.81553         0.93328
O          2.15229        -1.89705        -2.30443
O         -5.50977         2.99998        -0.82149
O          2.12455         2.18861        -1.44716
O         -5.93865         5.58884         1.87711
O         -1.49064         1.14456        -1.29499
H         -1.09749         0.47605        -1.90550
O         -3.59427         4.61157        -0.57856
O         -0.50534         8.00074         2.14148
O          0.62065        -7.30576         0.78973
O        -10.76259        -2.12144         1.02378
H        -10.20567        -1.92119         1.81593
O         -6.55669        -4.41756        -1.71289
O          4.02068        -9.37252        -0.98377
O         -4.16834         7.10164        -1.04087
O          9.49023        -0.70759         1.17672
O          2.63550        -6.85887        -2.15151
O         -1.80306        -1.93667         1.99517
H         -2.16661        -1.28275         2.64315
O         -7.16320        -3.88063         1.71050
O         -3.55717        -0.15088         2.30856
O         -5.32951        -6.82343        -1.61674
O          4.43196         3.32073        -1.65277
O         -1.68287        -4.61444        -2.26748
H         -0.85834        -4.68345        -2.80921
O          3.50790        -4.16620         0.33269
O         -2.79899        -2.38105        -1.47118
H         -2.92022        -3.14784        -2.09341
O          7.09194        -1.02137        -2.29183
H          7.80746        -0.34495        -2.49562
O          6.84403        -0.79325         1.31632
H          7.50241        -0.99877         2.01787
O          3.15424         5.67222        -1.44337
O          7.51385        -3.44257         1.52870
O          9.17337         0.59868        -2.19811
O          5.45239        -4.89940         1.38453
H          5.93870        -4.22886         1.91914
O         -4.00373        -4.62477        -2.16796
H         -4.98981        -4.51395        -2.34260
O          4.93602         7.67346         1.73431
O          4.14818         7.88696        -1.62358
O         -8.03715         2.37541         1.67322
O         -8.87934        -2.36206        -2.08934
H         -8.21184        -3.05967        -2.28914
O         -1.37335         3.43994         2.82511
H         -0.60456         3.85094         3.28098
O         -4.93331         1.98518         2.60643
H         -5.32091         1.27076         3.16502
O          6.07741        -7.96154        -1.16760
O          1.23583         3.29467         1.80779
O         -2.97923        10.48654         1.58339
H         -2.93876         9.65599         2.10226
O         -1.69431         3.27685        -0.70141
H         -2.36052         3.16267        -1.41351
O         -0.10233         5.52750         2.33480
O          8.80634         3.53107        -2.19707
H          8.95762         2.56213        -2.41980
O          5.17837         5.10546         1.65591
H          4.95187         5.79121         2.33024
O         -8.63211        -1.03397         1.75712
O          6.96114         5.33159        -2.85912
H          7.53487         4.50381        -2.65872
O          6.83713         1.55033        -1.97904
O         -1.17465        -9.23413         1.52780
H         -0.53132        -8.49095         1.65561
O          4.38694        -0.73647        -2.27135
O          5.87869         5.36120        -1.94150
H          5.22643         4.58357        -2.17419
O         -7.97821         3.31486        -1.88730
H         -7.89315         2.32830        -2.02081
O         -1.70972         1.21001         2.25016
H         -2.33096         1.51554         2.94562
O         -2.91421         9.23307        -1.83702
H         -3.40928         8.52434        -2.30821
O          8.07085        -6.15083        -0.81814
H          7.51738        -6.92034        -1.13852
O          0.84347         0.74447         1.63355
O         -6.55260         8.32971         1.56182
H         -6.65747         7.47124         2.03683
O         -6.04117        -7.83457         1.88519
H         -6.21657        -6.91185         2.16844
O          5.45667        -5.82796        -2.16210
H          5.84491        -6.72669        -2.34233
O         -9.48604         5.19120         0.86385
H         -9.09607         4.64878         1.58211
O          1.83631        -1.49234         1.22234
H          1.41834        -1.00152         1.96823
O         -2.69589        -5.97862         1.01932
H         -2.19536        -5.26558         1.49229
O         -0.22425       -10.36390        -1.81500
H          0.60826       -10.73727        -2.17103
O         -0.92207        -4.21750         1.28121
H         -0.97983        -3.43516         1.88580
O         -5.00348        -2.02844         2.70598
H         -5.34969        -1.25391         3.20318
O          1.26708        10.05669         2.15740
H          0.62382         9.43883         2.58660
H         12.24745        -1.20330        -0.48169
H         12.31964         1.24809        -0.41912
H         11.06202         3.46736        -0.12937
H          9.75906         5.72494        -0.43017
H          8.43124         7.87808        -0.74294
H          7.18982         9.99717        -0.39059
H          5.18951        11.27732        -0.23340
H          2.77574        11.38525         0.64940
H          0.00933        11.29050        -0.13541
H         -2.43644        11.23725        -0.25815
H         -4.89376        10.96581        -1.18766
H         -6.99671         9.89222        -0.76156
H         -8.26034         7.64686        -0.74026
H         -9.27442         5.46188        -1.17045
H        -10.75761         3.32421        -0.74418
H        -11.90327         1.24171        -1.17353
H        -12.01936        -1.18994        -1.14448
H        -10.58229        -3.33844        -1.31713
H         -9.70620        -5.50859        -0.81717
H         -8.50911        -7.74278         0.34398
H         -7.25411        -9.95770         0.19255
H         -5.18283       -11.19842        -0.21204
H         -2.65329       -11.24930         0.06615
H         -0.08011       -11.22616         0.09930
H          2.26726       -11.07799         0.79358
H          4.50352       -10.53854         2.08727
H          6.36247        -9.04515         2.55262
H          7.71902        -7.09780         2.11186
H          9.10251        -4.93222         1.69274
H         10.91973        -3.41126         0.25752
