         272
 CSIRO Nanostructure Databank - Neutral Graphene Oxide Data Set
C        -11.32792         0.70295         0.17140
C        -10.11107         1.50490        -0.15372
C         -8.81503         0.76559        -0.06779
C         -7.55718         1.51310         0.23444
C         -6.23081         0.70918         0.28980
C         -4.98997         1.42780        -0.30438
C         -3.71000         0.73797         0.12763
C         -2.54521         1.44828         0.30098
C         -1.26913         0.68937         0.66884
C          0.00364         1.42689         0.26545
C          1.25794         0.67673         0.12920
C          2.52970         1.39623         0.21640
C          3.83916         0.77091        -0.26141
C          5.07190         1.28825         0.47296
C          6.35340         0.59662         0.20476
C          7.54595         1.39377        -0.21388
C          8.86446         0.68437        -0.54088
C          9.99094         1.36001         0.30487
C         11.27095         0.54501         0.17901
C        -10.15438         3.01851         0.06001
C         -8.84364         3.74141        -0.22241
C         -7.57993         2.99405         0.05366
C         -6.31320         3.54926        -0.58329
C         -5.04678         2.93123         0.08059
C         -3.73746         3.65269        -0.18609
C         -2.51413         2.95811         0.38050
C         -1.20311         3.60426        -0.00007
C          0.01156         2.79635         0.11703
C          1.31273         3.49448         0.05479
C          2.53496         2.75182         0.43698
C          3.78552         3.49835         0.77711
C          5.09001         2.76771         0.78594
C          6.39620         3.52816         0.69055
C          7.55774         2.85907         0.01214
C          8.86654         3.58009        -0.04005
C         10.04115         2.83825        -0.05215
C         -8.77751         5.08927        -0.35051
C         -7.47013         5.81920        -0.07591
C         -6.28523         5.06871        -0.65736
C         -4.96821         5.73878        -0.76379
C         -3.70565         4.95501        -0.57033
C         -2.40840         5.72811        -0.66882
C         -1.17125         4.93602        -0.31232
C          0.10275         5.76150        -0.44054
C          1.36689         4.96723        -0.11373
C          2.51302         5.72540         0.50426
C          3.77546         5.00783         0.85910
C          5.10250         5.82201         0.99901
C          6.39422         5.02809         0.69390
C          7.57025         5.72517         0.06865
C          8.78139         4.99268        -0.15301
C         -7.41469         7.30155        -0.38478
C         -6.22771         7.96281        -0.51708
C         -4.94059         7.23636        -0.66691
C         -3.65104         7.92381        -0.38552
C         -2.54422         7.03163         0.18482
C         -1.23994         7.80450         0.40879
C          0.05583         6.99714         0.47943
C          1.30375         7.83326         0.22523
C          2.50108         7.19254         0.29927
C          3.78163         7.97353         0.46580
C          5.01470         7.09285         0.11952
C          6.31699         7.92827         0.16366
C          7.50286         7.07236        -0.21766
C         -6.12081         9.41535        -0.47913
C         -4.93927        10.06827        -0.29432
C         -3.66146         9.39046        -0.13630
C         -2.47440        10.03957         0.01792
C         -1.20835         9.29922         0.26109
C          0.07851         9.95002        -0.06957
C          1.26206         9.26197        -0.08155
C          2.51746         9.86517        -0.52566
C          3.72099         9.23970        -0.36333
C          4.96647         9.76051        -0.90344
C          6.15923         9.15189        -0.71570
C        -11.32018        -0.64318         0.18885
C        -10.08685        -1.41105        -0.23934
C         -8.83639        -0.70690         0.32217
C         -7.59551        -1.42308        -0.18757
C         -6.31825        -0.67783        -0.32048
C         -5.00178        -1.46207        -0.41276
C         -3.76175        -0.72146         0.09700
C         -2.60353        -1.47234         0.18311
C         -1.32468        -0.70889         0.05543
C         -0.04919        -1.40773        -0.26800
C          1.23990        -0.69160        -0.07524
C          2.47496        -1.43478        -0.44176
C          3.79204        -0.74063        -0.50592
C          5.08451        -1.52725        -0.50779
C          6.35981        -0.81416        -0.27141
C          7.60188        -1.54556         0.12271
C          8.85884        -0.80661        -0.18796
C         10.10766        -1.57049        -0.58492
C         11.31001        -0.77534        -0.08707
C        -10.04182        -2.89446         0.05845
C         -8.85783        -3.60096         0.03488
C         -7.52788        -2.89372         0.17547
C         -6.31912        -3.64021        -0.30481
C         -5.15031        -2.85526         0.23009
C         -3.84550        -3.61888         0.17500
C         -2.64452        -2.92335         0.10776
C         -1.39439        -3.65943        -0.25869
C         -0.09797        -2.91189        -0.45833
C          1.21340        -3.71852        -0.57007
C          2.48229        -2.91290        -0.19696
C          3.78519        -3.65311        -0.14395
C          5.10119        -2.99626        -0.31802
C          6.26732        -3.70956        -0.14030
C          7.55506        -3.05706         0.33955
C          8.86011        -3.73387        -0.04949
C         10.01327        -3.05019        -0.23682
C         -8.81560        -5.01461        -0.23626
C         -7.58542        -5.73746        -0.39115
C         -6.31845        -5.01348        -0.23633
C         -5.08299        -5.74659        -0.01669
C         -3.88772        -5.06598         0.12489
C         -2.62033        -5.76438         0.56923
C         -1.39660        -5.20342        -0.18873
C         -0.08332        -5.83632         0.30702
C          1.21413        -5.00028         0.30475
C          2.45912        -5.84836        -0.05224
C          3.76503        -5.14347        -0.28144
C          5.05210        -5.84610        -0.11861
C          6.24295        -5.16784        -0.02480
C          7.50139        -5.93369         0.09353
C          8.86747        -5.23755         0.16037
C         -7.58738        -7.08747        -0.69345
C         -6.39162        -7.90812        -0.45182
C         -5.14735        -7.22475         0.08844
C         -3.86363        -8.01899         0.12101
C         -2.58911        -7.32766         0.57387
C         -1.32225        -8.19587         0.30774
C         -0.04470        -7.36061         0.32673
C          1.20978        -8.05681         0.03939
C          2.47799        -7.33267         0.19369
C          3.75443        -8.04930        -0.14151
C          5.06611        -7.32508        -0.39507
C          6.15228        -8.02926         0.44611
C          7.46573        -7.28918         0.22716
C         -6.23001        -9.17804        -1.18786
C         -5.02989        -9.75981        -1.37602
C         -3.79982        -9.30915        -0.68521
C         -2.50866        -9.82764        -1.15693
C         -1.30355        -9.30907        -0.70337
C         -0.06091        -9.95884        -0.88461
C          1.19038        -9.40677        -0.43261
C          2.38941       -10.14210        -0.51633
C          3.72661        -9.46547        -0.69592
C          4.99652       -10.17178        -0.23596
C          6.10779        -9.51961         0.15118
O          3.34496        -7.89384         1.24570
O         -9.39758         1.09717        -1.37382
O         10.20302        -1.58543        -2.03703
H         10.02438        -0.66810        -2.35784
O         -5.63366        -2.65012         1.63603
O         -7.63968         2.41226         1.39671
O          4.38518         2.99342         2.03625
O          7.44502        -3.33027         1.71988
O         -4.08369         7.72212        -1.77202
O          2.81145         5.38185         1.90068
O         -1.24402         0.55091         2.07940
O         -6.46058         3.09120        -1.93992
H         -6.10533         3.79637        -2.53295
O          7.16662         2.31798        -1.30427
O          5.77259         0.60338         1.55080
O         -0.09945        -6.54845         1.56136
O          1.69533         4.14124        -1.27444
O         -5.80555         5.47060        -1.97505
O         -7.13092        -2.87159         1.63012
O         -0.85073        -0.72664        -1.32467
O         -7.16369        -0.92595        -1.48175
O         -3.99768        -9.29435         0.79643
O          3.11705        -3.18644         1.08533
O         -1.57607        -5.69940        -1.53736
H         -1.20831        -5.00779        -2.14375
O          0.13542         6.47085         1.81673
H         -0.02063         7.21743         2.43632
O         -5.01171         1.19708        -1.73220
H         -4.33249         1.76404        -2.15339
O         -2.63897        -5.55648         1.98231
O          5.86401        -7.90385         1.85240
H          5.87170        -6.95197         2.08860
O         -5.99281         0.44076         1.68534
H         -5.89688         1.32569         2.12117
O          2.97623        -5.64716        -1.40743
O          9.16603         0.87576        -1.93104
H          8.50793         1.52559        -2.28287
O          6.79185         4.25094         1.88247
O          3.02789        -1.02791        -1.74393
O         -3.01232         6.59187         1.47645
H         -2.63392         7.19739         2.15338
O         -9.94401        -5.71934        -0.38927
H        -10.73712        -5.16271        -0.25514
O        -10.04582        -1.42615        -1.68900
H         -9.78585        -0.51411        -1.98448
O         -2.19543         6.14021        -2.08884
O          3.83053         8.39069         1.84648
H          3.75403         7.58289         2.40566
O          5.95280        -1.07322        -1.64083
O          6.59112         8.40206         1.50282
H          6.20940         7.75036         2.14149
O          8.39375        -0.93559         1.18965
O         -6.10725        -7.82151         1.00992
O         -1.41121         3.07428         2.55803
H         -1.33150         2.04897         2.59702
O          1.30128        -4.07847        -1.95458
H          1.14728        -3.27639        -2.49665
O          5.44161        -7.45889        -1.79299
H          6.33465        -7.06472        -1.89802
O          5.21358         6.22042         2.37726
H          5.47095         5.41237         2.88238
O         -1.29646         8.64106         1.61711
O         -2.46449        -7.45945         2.09379
H         -3.29584        -7.85449         2.45816
O          3.78690        -9.43861        -2.15745
H          4.46786        -8.76696        -2.41388
O          4.03465         1.37379        -1.57469
H          3.53450         0.82339        -2.22160
O        -10.44993         3.25426         1.44817
H         -9.64765         2.99875         1.95925
O         -7.27145         5.72773         1.37136
H         -8.09963         6.00531         1.81565
O         -1.41595        -8.92550         1.56170
O         -0.96084        -3.23432        -1.59621
O          4.84706         6.59476        -1.22472
H          4.79648         7.36044        -1.83612
O          1.29058        -4.52717         1.65513
H          1.04928        -5.26694         2.25897
O         -4.73203        -1.68201        -1.81295
H         -4.85693        -0.81571        -2.26587
O          0.26400         6.26765        -1.77563
H          0.51713         5.50551        -2.34339
O         -2.64956         3.29665         1.90336
O         -8.88539        -0.78523         1.75650
H         -7.99712        -0.54837         2.11145
O          9.77561        -5.86547        -0.75340
H          9.66801        -5.45267        -1.63456
O         -3.10242         5.38242        -2.92410
H         -3.84809         6.02690        -3.05145
O          9.60726         1.36311         1.69851
H          9.29000         0.46267         1.94763
O         -5.25001         3.01886         1.50957
H         -4.37843         3.11938         1.96574
H         12.28582        -1.28801        -0.08441
H         12.20685         1.05596         0.46011
H         11.01027         3.35226        -0.15469
H          9.69271         5.56570        -0.38532
H          8.39535         7.57226        -0.62772
H          7.07003         9.59446        -1.14807
H          4.91290        10.68074        -1.50690
H          2.46730        10.83458        -1.04646
H          0.05672        11.01261        -0.35457
H         -2.44439        11.13865         0.07788
H         -4.93708        11.16701        -0.23111
H         -7.05268         9.99702        -0.54560
H         -8.34105         7.88538        -0.25742
H         -9.70207         5.68100        -0.45032
H        -10.98929         3.46185        -0.53907
H        -12.23516         1.25723         0.45529
H        -12.23657        -1.19636         0.44645
H        -10.99889        -3.43835        -0.03998
H         -8.53506        -7.59211        -0.93757
H         -7.11450        -9.56662        -1.71534
H         -4.94761       -10.64775        -2.02051
H         -2.51465       -10.68773        -1.84243
H         -0.03896       -10.91776        -1.42293
H          2.32603       -11.19762        -0.82675
H          5.03480       -11.26451        -0.37337
H          7.01212       -10.10233         0.39114
H          8.41084        -7.83540         0.37594
H          9.26770        -5.43316         1.19243
H         10.94024        -3.63044        -0.38503
