         298
 CSIRO Nanostructure Databank - Neutral Graphene Oxide Data Set
C         30.21048        31.70558         1.13832
C         30.18810        32.89771         0.79442
C         30.20607        36.19251         0.42430
C         30.30977        37.37406         0.75166
C         30.29128        40.48004         0.02249
C         30.31176        41.70218         0.13871
C         32.67407        28.84527         0.85377
C         31.60866        29.40121         1.14959
C         32.65657        31.56353         1.00196
C         31.28218        30.78350         0.63684
C         32.58155        33.09378         0.72333
C         31.26850        33.77606         0.33108
C         32.60147        36.04162         0.14907
C         31.29485        35.25640         0.12976
C         32.63892        37.40035         0.22781
C         31.45210        38.32850         0.62545
C         32.60808        40.25145        -0.65823
C         31.23445        39.41895        -0.42986
C         32.51377        41.78786        -0.86481
C         31.54004        42.55489         0.13290
C         32.60385        44.45418        -0.81649
C         31.52999        43.97944        -0.41198
C         35.51570        27.34865         0.13664
C         35.10094        28.68382        -0.28029
C         33.83979        29.40029         0.14870
C         35.03517        31.69963        -0.06405
C         33.84525        30.87106         0.33544
C         35.16561        33.05206         0.71045
C         33.85870        33.85426         0.55061
C         35.18693        35.93464        -0.13419
C         33.86021        35.23887        -0.05145
C         35.21116        37.41880         0.01401
C         33.92613        38.15814         0.12874
C         35.24778        40.26978        -0.42572
C         33.92298        39.55718        -0.42456
C         35.21278        41.72297        -0.78012
C         33.90970        42.45394        -0.95119
C         35.08912        44.64229        -0.52571
C         33.95151        43.97290        -0.85639
C         35.35934        46.02830        -0.38587
C         37.65002        27.14709        -0.89168
C         36.65107        26.84547         0.19452
C         37.72210        28.72715        -0.86252
C         36.37043        29.46274        -0.65575
C         37.69397        31.53316         0.04127
C         36.36990        30.94288        -0.40190
C         37.64183        32.96802         0.43247
C         36.38451        33.71721        -0.00965
C         37.64714        35.90899         0.19388
C         36.47193        35.22432         0.11711
C         37.63567        37.41726         0.40141
C         36.49802        38.08006        -0.43502
C         37.74174        40.31297        -0.67556
C         36.43153        39.59053        -0.37785
C         37.69601        41.73623        -0.07123
C         36.50832        42.57160        -0.68706
C         37.60342        44.69475         0.31836
C         36.28812        43.86194         0.12281
C         37.60075        46.22394         0.37205
C         36.31394        46.77708        -0.12014
C         40.41089        24.57747        -0.38003
C         39.30030        25.14256        -0.36589
C         40.34387        27.28613        -0.87237
C         39.01586        26.49558        -0.85984
C         40.33685        28.75573        -0.69161
C         39.04276        29.49076        -0.75197
C         40.17564        31.51774         0.18346
C         39.01998        30.88868        -0.21068
C         40.15540        32.90140         0.77356
C         38.89305        33.72272         0.68702
C         40.24527        35.84748         0.29259
C         38.91211        35.21353         0.59053
C         40.27136        37.30641        -0.09575
C         39.00453        38.12221         0.18446
C         40.36966        40.25860        -0.46376
C         39.01225        39.58674        -0.15592
C         40.31333        41.70960         0.14422
C         39.01606        42.51575        -0.32962
C         40.24604        44.75018        -0.11109
C         38.96266        43.92284         0.38375
C         40.20564        46.28117         0.09699
C         38.87723        47.00869         0.27838
C         40.18531        48.84181         1.18886
C         39.08678        48.31145         0.94172
C         43.03882        24.66722        -0.72649
C         41.71089        25.17002        -0.50859
C         42.81231        27.36164        -1.11690
C         41.63320        26.55342        -0.71161
C         42.78363        28.77686        -0.68205
C         41.54737        29.43616        -0.49399
C         42.73148        31.49276         0.44372
C         41.51456        30.97996        -0.36174
C         42.73312        32.89764         0.95682
C         41.44431        33.69447         0.96280
C         42.79133        35.80054         0.53022
C         41.47208        35.14040         0.68925
C         42.89023        37.24115         0.06791
C         41.63303        38.03417        -0.38592
C         42.92788        40.22528         0.12861
C         41.59143        39.45834         0.19653
C         42.91281        41.71497        -0.05635
C         41.59018        42.40447        -0.36614
C         42.81499        44.82460         0.35082
C         41.49988        44.10274         0.55738
C         42.79577        46.17772         0.49462
C         41.55921        46.99909         0.21426
C         42.81793        48.95216         1.05990
C         41.52818        48.40933         1.52647
C         44.08022        25.30808        -0.96670
C         45.40345        27.56506        -1.54112
C         44.15820        26.69302        -1.43765
C         45.37463        28.66863        -0.43737
C         44.04630        29.35307        -0.17078
C         45.32774        31.55078         0.33704
C         44.04223        30.76390         0.33808
C         45.29202        33.02393         0.62704
C         44.04771        33.59942         1.30549
C         45.27542        35.93493         1.36568
C         43.98882        35.15763         1.20481
C         45.27722        37.48288         1.15817
C         44.21274        38.05807         0.16254
C         45.33436        40.32922         0.86976
C         44.08767        39.57437         0.44101
C         45.36056        41.84115         0.77681
C         44.12124        42.53809         0.26682
C         45.37335        44.73109         0.55270
C         44.04218        44.00718         0.59313
C         45.27913        46.21803         0.32969
C         44.09330        46.90072         0.94101
C         43.88393        48.38739         0.77305
C         47.78507        27.44650        -0.89353
C         46.75039        26.92636        -1.31164
C         48.00328        28.82725        -0.43472
C         46.63957        29.34901         0.01831
C         47.86096        31.59398         0.55505
C         46.58184        30.72199         0.71869
C         47.59058        32.84578         1.38569
C         46.53227        33.66767         1.16438
C         47.93244        35.85629         1.15854
C         46.60065        35.15399         1.44561
C         47.88300        37.30903         0.69749
C         46.61352        38.09245         0.72682
C         47.86087        40.30829         0.34017
C         46.70148        39.60257         1.05489
C         47.82374        41.79099         0.06143
C         46.62315        42.58616         0.44143
C         47.65515        44.63194        -0.57347
C         46.57366        43.93651         0.13913
C         47.31312        45.93255        -0.80459
C         46.29737        46.65429        -0.46317
C         50.49738        28.75760         0.39079
C         49.23287        29.46995         0.14226
C         50.54669        31.52479         1.21116
C         49.17248        30.82008         0.87694
C         50.64629        33.02462         1.11722
C         49.57399        33.79763         1.43069
C         50.57383        35.94611         0.85621
C         49.24626        35.10342         0.72552
C         50.32962        37.30362         0.18921
C         49.19205        38.09249         0.83501
C         50.31827        40.20346        -0.38122
C         49.18402        39.56846         0.37609
C         50.27911        41.71160        -0.66522
C         49.10294        42.54718        -0.25583
C         49.71579        44.07326        -2.06767
C         49.03485        44.06447        -0.68690
C         51.52730        29.38464         0.74417
C         52.78955        31.57134         0.28824
C         51.79637        30.75348         0.83197
C         52.71570        32.75830        -0.15808
C         51.95434        33.74967         0.71607
C         52.51343        35.94116        -0.54428
C         51.69629        35.11749         0.18513
C         52.62303        37.20277        -0.80000
C         51.32173        37.91055        -0.80155
C         52.49842        40.14139        -1.44971
C         51.19878        39.33517        -1.29620
C         52.32736        41.34485        -1.83766
C         51.29277        42.25664        -1.66494
C         50.81552        43.46069        -2.20097
O         50.37775        40.08664         1.05453
O         50.15668        37.12873        -1.24965
O         47.47607        35.62715         2.51224
O         39.45378        46.90620        -1.03306
O         43.24146        27.00413        -2.50706
O         43.99858        29.66191         1.28829
O         44.36952        35.69112         2.49871
O         33.14031        33.87170         1.82515
O         48.59563        33.25412         2.24501
O         37.45103        45.47484         1.58691
O         39.05097        39.15788         1.21970
O         41.46263        43.77910         1.81675
O         49.70322        30.88123         2.20157
O         46.00539        28.29548         0.81456
O         36.81527        37.71331        -1.83953
O         40.67525        33.15354         2.11158
O         43.87444        42.15447        -1.11763
O         45.12972        41.18864         2.04951
O         33.30345        39.61697        -1.76129
O         37.52693        31.90680         1.45993
O         36.23612        30.41728        -1.74440
O         31.18245        34.33556        -0.98810
O         48.84535        29.62980        -1.25300
O         39.67166        26.78772        -2.10793
O         36.19622        33.44608        -1.39105
O         34.60997        41.92782        -2.11417
O         43.10731        36.14246        -0.88000
O         38.76012        34.57976         1.88230
O         50.23797        42.40762         0.63596
O         34.02586        28.86295        -1.20707
O         47.15816        37.60278        -0.52527
O         44.77971        44.29820         1.81148
O         34.48808        35.45388        -1.34451
O         40.10422        36.32438        -1.15884
O         41.61649        31.48766        -1.64381
O         34.77011        37.94550         1.30535
O         42.51537        31.73961         1.84438
O         45.34141        32.54375        -0.75400
O         47.52988        40.78627        -0.99131
O         38.36681        29.25213        -2.03918
O         41.63361        47.92937         2.80413
H         42.55341        47.59339         2.95300
O         36.78653        43.03387        -2.00411
H         36.88327        42.25370        -2.59400
O         30.86267        38.81635        -1.63621
H         30.75380        39.50883        -2.32015
O         34.48365        32.11544        -1.32512
H         34.86845        31.53462        -2.03577
O         31.92142        41.94251        -2.16170
H         32.59170        41.64228        -2.81605
O         37.46890        41.51952         1.31899
H         37.91723        42.23107         1.83806
O         47.08622        39.66283         2.44824
H         46.30092        39.38367         2.97985
O         31.79444        38.97773         1.83330
H         31.95080        38.31121         2.53361
O         41.81195        47.70872        -0.96124
H         40.94642        47.93507        -1.37733
O         40.55373        40.38414        -1.86395
H         40.91741        39.53659        -2.22970
O         49.42506        38.15428         2.26298
H         48.73407        38.75296         2.65175
O         39.07393        43.64820         1.78802
H         38.80080        44.45518         2.28574
O         48.00811        32.01326        -0.80487
H         47.16872        32.43374        -1.11604
O         44.13889        46.71663         2.37281
H         45.05071        46.88788         2.68955
O         37.04580        26.78059        -2.11954
H         37.74260        26.76272        -2.81224
O         50.93614        36.04133         2.23371
H         50.48071        36.82626         2.63680
O         35.80583        43.50640         1.41677
H         35.90602        44.29187         2.00104
O         41.44259        39.19892         1.60185
H         41.06310        40.01025         2.02866
O         46.48226        30.48799         2.12438
H         45.73604        29.85559         2.27016
O         50.54241        39.32266        -2.55353
H         50.82933        38.53960        -3.06746
O         40.34989        41.52200         1.54212
H         40.58073        42.38749         1.99130
O         37.29343        37.54225         1.78506
H         37.58462        38.43035         2.09868
O         37.83476        40.38420        -2.11561
H         37.49874        39.53058        -2.48205
O         52.73154        33.89975         1.90930
H         52.44403        34.73093         2.35614
O         32.11621        42.56919         1.40709
H         31.48328        42.94284         2.05374
O         35.29926        32.88143         2.10890
H         36.17437        32.48679         2.33589
O         49.83768        44.82686         0.18158
H         50.58393        44.25692         0.48751
O         49.06552        34.73357        -0.65080
H         49.25997        35.50934        -1.22927
O         41.54516        42.64171        -1.69607
H         42.46819        42.70011        -2.04639
O         45.41602        28.23750        -2.77873
H         44.77603        27.80735        -3.39085
O         35.60060        37.86580        -2.61697
H         35.22650        36.94505        -2.63518
O         31.18026        30.70212        -0.75347
H         30.32554        30.30090        -1.01154
O         44.98553        38.07575         2.43907
H         44.47322        37.41422         2.96717
O         40.45362        44.67846        -1.51641
H         39.72404        45.15113        -1.97314
O         44.33082        33.28164         2.67907
H         43.49134        33.25125         3.18472
O         41.77658        38.10791        -1.81882
H         41.57218        37.19917        -2.15438
O         44.77681        38.01560        -1.15707
H         44.04498        38.05585        -1.81081
O         32.84019        31.38717         2.41015
H         33.39351        32.14401         2.73020
O         39.12240        42.71366        -1.72588
H         39.24984        41.84117        -2.16688
