         640
 CSIRO Nanostructure Databank - Neutral Graphene Oxide Data Set
C         23.27357        27.85924        -2.45673
C         23.23126        29.19134        -2.09885
C         23.17864        32.04280        -1.42086
C         23.14043        33.36617        -1.02520
C         23.00659        36.09377         0.11004
C         22.97339        37.42117         0.50366
C         22.95484        40.27140         1.30031
C         22.95778        41.64159         1.53496
C         22.97749        44.55481         1.93503
C         23.00920        45.93156         1.99202
C         25.73967        25.10082        -2.86072
C         24.54933        25.77390        -2.82972
C         25.68993        27.80349        -2.02766
C         24.49681        27.14687        -2.43855
C         25.63406        29.17138        -1.62122
C         24.40118        29.87645        -1.67781
C         25.52460        31.89120        -0.76083
C         24.35842        31.27117        -1.29255
C         25.45533        33.23621        -0.31097
C         24.27147        33.98156        -0.43595
C         25.42958        36.06254         0.28114
C         24.22764        35.38448        -0.00217
C         25.40922        37.45868         0.61953
C         24.16421        38.14266         0.76978
C         25.39794        40.18540         1.42798
C         24.16855        39.52855         1.17888
C         25.40994        41.58213         2.01455
C         24.14525        42.36104         1.74991
C         25.42960        44.48072         1.83102
C         24.17533        43.78819         1.84914
C         25.44789        45.89135         1.90324
C         24.24381        46.62967         1.96387
C         25.41304        48.77312         1.70681
C         24.26147        48.06887         1.85169
C         28.29497        23.74545        -3.19494
C         28.21521        25.06097        -2.61444
C         26.97339        25.73905        -2.49986
C         28.13338        27.76362        -1.64100
C         26.93721        27.09938        -2.04512
C         28.08149        29.11977        -1.17468
C         26.82952        29.82718        -1.16593
C         27.97500        31.82122        -0.28095
C         26.76976        31.16081        -0.70975
C         27.93964        33.16441         0.13200
C         26.61914        33.82467         0.44057
C         27.86889        35.97570         0.58937
C         26.67753        35.33033         0.35274
C         27.93319        37.48529         0.49657
C         26.62436        38.15353         0.83781
C         27.89031        40.19897         1.46313
C         26.62555        39.49722         1.26246
C         27.88212        41.62865         1.53153
C         26.66863        42.35071         1.69213
C         27.91090        44.46836         1.45871
C         26.67436        43.75063         1.67963
C         27.95182        45.87800         1.50845
C         26.73898        46.60216         1.92645
C         27.96099        48.79497         1.35353
C         26.72874        48.12638         1.84146
C         27.97823        50.18054         1.17151
C         30.73562        23.73531        -3.00138
C         29.47869        23.11671        -3.41899
C         30.65836        25.06483        -2.37359
C         29.43975        25.72229        -2.22991
C         30.56847        27.73952        -1.28516
C         29.38931        27.08679        -1.71670
C         30.51502        29.06058        -0.72331
C         29.26514        29.76712        -0.72896
C         30.42046        31.78770         0.13127
C         29.22954        31.13060        -0.29904
C         30.39532        33.15651         0.52088
C         29.13785        33.83578         0.46743
C         30.24224        35.84983         1.30575
C         29.09553        35.22470         0.77922
C         29.98197        37.17434         1.83060
C         29.02749        38.03199         1.36758
C         30.36658        40.14609         1.56731
C         29.09868        39.46907         1.56900
C         30.31583        41.54033         1.08616
C         29.09937        42.33186         1.31867
C         30.36269        44.45198         1.00887
C         29.12621        43.73659         1.24017
C         30.35160        45.88280         0.95271
C         29.14634        46.59916         1.20879
C         30.33837        48.71805         0.70468
C         29.14529        48.03779         1.11966
C         30.34874        50.15049         0.62816
C         29.15658        50.85038         0.83549
C         33.02806        20.66079        -2.51776
C         31.96476        21.40092        -2.91450
C         32.94289        23.37686        -1.70912
C         31.97380        22.87185        -2.76001
C         33.06506        24.87773        -1.63765
C         31.95904        25.78435        -2.13914
C         32.96462        27.63915        -0.80127
C         31.83472        27.06053        -1.33883
C         32.93882        28.97166        -0.23196
C         31.67726        29.67845        -0.20440
C         32.81683        31.69453         0.68183
C         31.65345        31.05295         0.22109
C         32.83395        33.09314         0.99371
C         31.58468        33.84200         0.96309
C         32.76655        35.88555         1.88452
C         31.51730        35.20052         1.37636
C         32.91339        37.38568         1.88246
C         31.80434        38.18952         2.13953
C         32.88371        40.20538         1.37084
C         31.64519        39.52950         1.68090
C         32.88368        41.59009         1.07878
C         31.61647        42.28910         0.84206
C         32.81192        44.45697         0.67284
C         31.58570        43.76052         0.86002
C         32.79380        45.86611         0.47398
C         31.54971        46.58776         0.59702
C         32.67103        48.66309        -0.29736
C         31.51503        47.98169         0.40027
C         32.75672        50.14951        -0.01742
C         31.59931        50.85927         0.37736
C         32.84914        52.94002         0.21272
C         31.68931        52.25996         0.53731
C         35.50181        19.08636        -2.04489
C         35.46892        20.48330        -1.84150
C         34.25313        21.26475        -2.00698
C         35.46722        23.31162        -1.36640
C         34.25934        22.62706        -1.72694
C         35.42467        24.67860        -1.05210
C         34.19871        25.43634        -1.11686
C         35.46255        27.54439        -0.42539
C         34.16144        26.79724        -0.46083
C         35.44556        29.04231        -0.23722
C         34.10615        29.58209         0.20750
C         35.31090        31.61733         1.06883
C         34.01726        30.84707         1.02890
C         35.31363        33.00084         1.19671
C         34.06171        33.73326         1.27766
C         35.44263        35.81933         2.00787
C         34.07484        35.11870         1.79767
C         35.48623        37.41046         1.89529
C         34.13951        38.08475         1.66875
C         35.41115        40.25900         1.53091
C         34.11642        39.47524         1.48903
C         35.32798        41.64719         0.94795
C         34.09477        42.32472         0.90093
C         35.26677        44.43874         0.42060
C         34.05319        43.73736         0.63476
C         35.24882        45.85455         0.20801
C         34.01083        46.56037         0.21653
C         35.17562        48.63489        -0.35512
C         33.99656        47.96162        -0.08567
C         35.10523        50.04591        -0.89433
C         33.93835        50.83650        -0.33424
C         35.15497        52.98972        -0.72652
C         33.98307        52.25462        -0.28216
C         35.19497        54.35878        -0.83558
C         37.87986        18.96400        -1.48444
C         36.66843        18.35262        -1.87236
C         37.87886        20.37597        -1.27162
C         36.67777        21.13307        -1.45411
C         37.90036        23.19246        -0.90701
C         36.70070        22.55606        -1.26711
C         37.96446        24.65841        -0.84549
C         36.66751        25.44147        -0.91944
C         37.88995        27.47261        -0.07362
C         36.64495        26.84869        -0.45116
C         37.84649        28.82500         0.44707
C         36.64101        29.52334         0.54642
C         37.81924        31.60086         1.19316
C         36.55674        30.81348         1.32725
C         37.81494        33.00130         1.15092
C         36.57104        33.73440         1.20973
C         37.80180        35.84440         1.04085
C         36.59418        35.14315         1.27743
C         37.81947        37.28508         0.87466
C         36.47167        37.97220         0.83397
C         37.73143        40.15261         0.65274
C         36.59081        39.47963         0.98369
C         37.76467        41.60695         0.59712
C         36.53126        42.32726         0.65957
C         37.72958        44.43455         0.20189
C         36.50953        43.73558         0.40656
C         37.71488        45.85141         0.00354
C         36.47120        46.55213        -0.01125
C         37.65752        48.66785        -0.43332
C         36.44318        47.96061        -0.26351
C         37.59422        50.10138        -0.66811
C         36.41423        50.78144        -0.79310
C         37.63161        53.00832        -0.73303
C         36.38414        52.24076        -1.20368
C         37.62089        54.45874        -1.17756
C         36.38949        55.07067        -1.19637
C         40.27876        16.05243        -1.24175
C         39.13156        16.78203        -1.45392
C         40.30393        18.86430        -0.94742
C         39.10668        18.20140        -1.29867
C         40.30162        20.29490        -0.72728
C         39.08452        21.03713        -0.87313
C         40.29890        23.11937        -0.30273
C         39.09303        22.44523        -0.67764
C         40.31025        24.52938        -0.03783
C         39.12124        25.31233        -0.21974
C         40.26060        27.31799         0.67062
C         39.06456        26.68442         0.08442
C         40.30063        28.78474         0.75893
C         39.09566        29.45078         0.82596
C         40.30048        31.61328         0.85400
C         39.10259        30.84265         1.39730
C         40.33854        33.01058         1.46956
C         39.04886        33.73115         1.15437
C         40.28678        35.82627         0.84282
C         39.04521        35.12317         0.97704
C         40.28850        37.26141         0.38965
C         38.97050        37.96771         0.59154
C         40.24980        40.17479         0.46610
C         38.95627        39.41986         0.16563
C         40.23453        41.59221         0.40854
C         38.97628        42.30179         0.38603
C         40.19794        44.44455         0.14076
C         38.96919        43.72586         0.22874
C         40.19122        45.87350        -0.05702
C         38.94332        46.55910        -0.16027
C         40.15311        48.67393        -0.44823
C         38.91576        47.97881        -0.36583
C         40.12917        50.14308        -0.48674
C         38.87464        50.80809        -0.92232
C         40.18002        53.02958        -1.05298
C         38.90046        52.28067        -1.10190
C         40.13082        54.44352        -1.28702
C         38.88752        55.14532        -1.37424
C         40.11552        57.22380        -1.76762
C         38.92182        56.54087        -1.62730
C         42.68904        15.96743        -0.62336
C         41.49436        16.69555        -0.87283
C         42.73804        18.75927        -0.41366
C         41.51381        18.11329        -0.75010
C         42.76716        20.22841        -0.40428
C         41.48735        20.96351        -0.38635
C         42.70391        23.03264         0.23844
C         41.49997        22.36993        -0.13912
C         42.73629        24.42528         0.38163
C         41.53008        25.15517         0.29649
C         42.83703        27.29364         0.67370
C         41.55488        26.55951         0.71548
C         42.81498        28.72148         0.78402
C         41.58518        29.44884         0.88405
C         42.81573        31.57527         0.93792
C         41.60717        30.86014         0.96763
C         42.81300        33.03071         0.99956
C         41.58767        33.75361         1.09283
C         42.76432        35.92453         0.89638
C         41.52946        35.16553         0.95515
C         42.75993        37.30653         0.83455
C         41.44529        38.03660         1.02140
C         42.70408        40.19010         0.59939
C         41.46860        39.49302         0.62087
C         42.71033        41.61897         0.50222
C         41.45609        42.33450         0.45164
C         42.65683        44.53409         0.47771
C         41.42173        43.75094         0.33746
C         42.67985        45.95258         0.05532
C         41.41996        46.60094        -0.15365
C         42.64588        48.74395        -0.48390
C         41.39864        48.01619        -0.35020
C         42.66002        50.15274        -0.67485
C         41.40967        50.91964        -0.56496
C         42.63370        53.01835        -1.17825
C         41.38616        52.34417        -0.97577
C         42.61467        54.43625        -1.40352
C         41.36849        55.13977        -1.44418
C         42.59415        57.23644        -1.82676
C         41.35700        56.54614        -1.67760
C         43.83878        16.60834        -0.21050
C         45.06949        18.69838         0.49579
C         43.89006        18.02559        -0.07581
C         45.15241        20.11005         0.54194
C         44.02236        20.91490         0.04068
C         45.20713        22.99257         0.67405
C         43.88875        22.25277         0.72272
C         45.19758        24.40402         0.42510
C         44.00876        25.12847         0.46325
C         45.29425        27.27375         0.40015
C         44.02769        26.57838         0.48748
C         45.27876        28.71212         0.54375
C         44.05552        29.42966         0.72631
C         45.27010        31.59002         0.68541
C         44.05619        30.86625         0.80235
C         45.26406        33.03887         0.74147
C         44.03299        33.72887         0.92893
C         45.26470        35.92870         0.75957
C         44.04208        35.20154         1.23522
C         45.23141        37.34124         0.65581
C         43.98428        38.05412         0.74219
C         45.18377        40.18347         0.42590
C         43.96010        39.47130         0.61475
C         45.18005        41.61015         0.31776
C         43.94315        42.30825         0.42152
C         45.21245        44.48017         0.18254
C         43.97203        43.76991         0.50677
C         45.20587        45.99370         0.32031
C         43.88898        46.64418        -0.08086
C         45.10132        48.72434        -0.77176
C         43.88413        48.03126        -0.44449
C         45.05848        50.10369        -1.08039
C         43.85331        50.84849        -0.97115
C         45.07446        52.99414        -1.43699
C         43.84830        52.28860        -1.19329
C         45.07472        54.41463        -1.59449
C         43.83421        55.14473        -1.58358
C         43.78856        56.55818        -1.77810
C         47.06229        18.60597         1.88018
C         46.07621        17.95437         1.15202
C         47.13477        20.00885         1.88580
C         46.22857        20.80748         1.16642
C         47.64348        22.99073         0.99960
C         46.35605        22.27583         1.01282
C         47.67057        24.23211         0.34658
C         46.45257        25.03841        -0.11384
C         47.69328        27.34435        -0.02838
C         46.49172        26.57324         0.11631
C         47.72151        28.75257         0.27169
C         46.50022        29.44462         0.48890
C         47.72948        31.57715         0.44294
C         46.50202        30.87820         0.54896
C         47.73363        33.06664         0.20707
C         46.46197        33.76807         0.60029
C         47.69099        35.91438         0.37875
C         46.47232        35.20522         0.59173
C         47.67912        37.34610         0.30862
C         46.44539        38.06074         0.44278
C         47.65080        40.20346         0.19434
C         46.42808        39.48212         0.35020
C         47.65107        41.62628         0.12996
C         46.40718        42.32997         0.18074
C         47.68164        44.54255         0.20176
C         46.38779        43.77035         0.10052
C         47.57224        45.90181        -0.44804
C         46.41300        46.62687        -0.34032
C         47.56576        48.66643        -1.09088
C         46.36346        48.00884        -0.78079
C         47.57156        50.05563        -1.57066
C         46.25689        50.80598        -1.56846
C         47.52706        52.94614        -1.74674
C         46.30168        52.27914        -1.55739
C         47.50174        54.36298        -1.85836
C         46.31853        55.06630        -1.80348
C         50.37256        20.82032         2.64005
C         49.08748        21.33049         2.25359
C         50.21353        23.33688         1.41885
C         48.92764        22.46692         1.47224
C         50.17449        24.36855         0.33179
C         48.94386        24.67118        -0.14561
C         50.19261        27.35536        -0.20295
C         48.91945        26.80352        -0.47549
C         50.20268        28.76965         0.05337
C         48.95695        29.46115         0.22771
C         50.20345        31.60558         0.29337
C         48.94853        30.88347         0.34762
C         50.22634        33.01472         0.42242
C         48.95787        33.75094         0.81442
C         50.12622        35.88385         0.18897
C         48.95485        35.21288         0.40794
C         50.06840        37.28240        -0.39775
C         48.88065        38.06355         0.10722
C         50.11650        40.20282         0.00937
C         48.89131        39.48351         0.09923
C         50.13328        41.60956        -0.07575
C         48.89483        42.33204        -0.02886
C         50.12713        44.40428        -0.38683
C         48.92009        43.74785        -0.14800
C         50.12644        45.81359        -0.82208
C         48.79811        46.54059        -0.95282
C         50.04879        48.69006        -1.14807
C         48.82633        48.00455        -1.03290
C         50.05495        50.12420        -1.35561
C         48.83033        50.81884        -1.54202
C         50.03854        52.90017        -1.80161
C         48.80026        52.21840        -1.73137
C         51.53241        21.32981         2.11430
C         52.66581        23.09748         0.80589
C         51.50713        22.54095         1.35852
C         52.68442        24.43739         0.25742
C         51.40195        25.05328        -0.25606
C         52.63094        27.27620        -0.07026
C         51.40195        26.58902        -0.16938
C         52.65921        28.72087        -0.07126
C         51.43033        29.46002         0.01315
C         52.63486        31.61908        -0.01937
C         51.42422        30.90248         0.09991
C         52.65635        33.02088         0.08456
C         51.43417        33.70798         0.31436
C         52.69905        35.90949         0.14005
C         51.41662        35.18812         0.39116
C         52.68681        37.34635        -0.22493
C         51.38941        38.05717        -0.33479
C         52.66612        40.20370         0.00482
C         51.38875        39.44807         0.27066
C         52.64012        41.60420        -0.11351
C         51.38616        42.31209        -0.16955
C         52.60825        44.44596        -0.48101
C         51.38475        43.71762        -0.35996
C         52.59908        45.89765        -0.55952
C         51.34588        46.60540        -0.70738
C         52.51814        48.75405        -0.89376
C         51.30538        48.00225        -0.93351
C         52.53811        50.13338        -1.18790
C         51.28238        50.83679        -1.41416
C         51.24025        52.22697        -1.65999
C         55.09605        22.95026         0.49870
C         53.93885        22.39671         0.90489
C         55.16760        24.33600        -0.08078
C         53.88089        25.11728         0.09939
C         55.09476        27.28218         0.11815
C         53.89203        26.56551        -0.00579
C         55.12755        28.71576         0.04357
C         53.89494        29.40971        -0.09232
C         55.10427        31.61063         0.13012
C         53.89579        30.88410        -0.40271
C         55.12462        33.05918        -0.12830
C         53.92275        33.75474        -0.06557
C         55.17890        35.90136        -0.10241
C         53.94447        35.17397        -0.08243
C         55.15474        37.37359         0.01569
C         53.94352        38.08069         0.03295
C         55.14162        40.22349         0.04421
C         53.90972        39.50383         0.03619
C         55.11739        41.65021        -0.05311
C         53.87441        42.33482        -0.17668
C         55.08987        44.46147        -0.40485
C         53.85794        43.75396        -0.36247
C         55.08825        45.90422        -0.84548
C         53.79028        46.60651        -0.56720
C         55.05122        48.78515        -0.72881
C         53.76543        48.09168        -0.35960
C         55.00191        50.12269        -1.11060
C         53.78731        50.79983        -1.28493
C         57.72763        24.45128         0.15374
C         56.41280        25.07006         0.38654
C         57.63490        27.31652         0.36110
C         56.36093        26.58533         0.43546
C         57.61851        28.74519         0.29558
C         56.38062        29.41441         0.16160
C         57.65892        31.64539         0.22337
C         56.38739        30.88255         0.30146
C         57.65813        33.02974         0.02466
C         56.40865        33.73707        -0.47245
C         57.66067        35.95847        -0.41674
C         56.37930        35.21253        -0.19825
C         57.63036        37.33893         0.21541
C         56.36915        38.10056         0.10662
C         57.62684        40.25072         0.16601
C         56.37703        39.51382         0.12640
C         57.59591        41.67985         0.08948
C         56.34574        42.37592        -0.04194
C         57.55510        44.54395        -0.12557
C         56.31840        43.79463        -0.20488
C         57.52291        45.98105        -0.18215
C         56.31030        46.67808        -0.41885
C         57.51550        48.80345        -0.29263
C         56.29542        48.08700        -0.48628
C         58.86878        25.17645         0.26933
C         60.06735        27.34985         0.49450
C         58.84838        26.61475         0.41914
C         60.06422        28.72634         0.52365
C         58.85819        29.47718         0.41640
C         60.08699        31.66803         0.45837
C         58.87793        30.91341         0.38364
C         60.08740        33.03665         0.34751
C         58.88839        33.77658         0.08159
C         60.12414        35.95483        -0.11819
C         58.91487        35.18577        -0.07344
C         60.13919        37.32425        -0.06214
C         58.92900        38.09044         0.29964
C         60.05958        40.32697         0.24263
C         58.87339        39.57496         0.23964
C         60.03284        41.71548         0.19597
C         58.81523        42.42081         0.12016
C         59.97235        44.64304         0.23642
C         58.78113        43.87407         0.07203
C         59.94815        46.01814         0.21399
C         58.73035        46.71919         0.00087
C         58.69607        48.13941        -0.05543
O         30.85118        41.70407        -0.28153
O         52.16213        37.80047        -1.54565
O         33.30038        35.20846         3.07322
O         55.53469        31.27768         1.48721
O         56.25947        25.73903         1.66082
O         49.42514        45.91646        -2.13169
O         30.78301        37.60981         2.89347
O         40.74160        26.73358         1.94551
O         46.79962        50.23205        -2.81479
O         26.93087        47.44022         3.12342
O         43.35294        44.30389         1.76751
O         31.86688        23.61887        -3.99866
O         37.53663        25.30067        -2.10649
O         58.27918        37.49453         1.50491
O         48.05950        20.55334         2.77261
O         52.18230        35.73366         1.53651
O         43.73893        20.83837        -1.37476
O         40.70395        50.73860         0.73391
O         48.88015        25.60768        -1.20915
O         38.87738        51.39511        -2.29179
O         28.24460        37.82010        -0.89660
H         27.48589        37.53262        -1.44664
O         56.52802        33.62562        -1.98069
H         55.94956        32.88363        -2.26794
O         32.38365        48.55074        -1.73281
H         33.14534        48.97319        -2.20521
O         32.29169        23.00534        -0.43404
H         32.93590        23.17537         0.28611
O         48.83600        33.66897         2.25366
H         49.62075        34.09999         2.65297
O         40.05586        31.76998        -0.57047
H         40.84080        32.20158        -0.96864
O         49.76301        37.07834        -1.81606
H         50.62418        37.11922        -2.29796
O         33.94091        26.44854         0.97145
H         32.97992        26.29509         1.09783
O         47.83963        44.82845         1.63728
H         47.03464        45.33776         1.91884
O         57.72467        36.20233        -1.86643
H         57.45481        35.35973        -2.30427
O         35.88618        37.69997        -0.46776
H         36.44622        38.14119        -1.14252
O         40.55046        37.24656        -1.06118
H         39.97002        36.56263        -1.45820
O         55.33168        24.19616        -1.52935
H         54.49624        23.82870        -1.88981
O         51.37975        39.16945         1.72029
H         51.36889        40.02948         2.19150
O         32.40738        26.23209        -3.46695
H         32.42305        25.42589        -4.03961
O         36.33085        52.24402        -2.66134
H         37.19699        51.87116        -2.96703
O         44.11073        35.26202         2.72375
H         44.16643        36.21049         2.96950
O         51.43185        24.74163        -1.69230
H         50.57110        25.05242        -2.05869
O         33.76554        30.38345         2.41929
H         34.63044        30.03881         2.75787
O         46.33289        24.86147        -1.56340
H         47.18419        25.16417        -1.95706
O         53.66635        48.27218         1.12626
H         53.62105        49.23893         1.29108
O         38.86026        39.39608        -1.30081
H         39.61623        38.83836        -1.61061
O         35.69590        40.53156         2.94796
H         35.84828        39.64971         3.37391
O         40.40436        32.88837         2.92030
H         40.58607        33.77908         3.28672
O         35.61502        29.61143        -1.60479
H         36.41352        29.19687        -1.99778
O         39.24923        30.65560         2.82948
H         38.42421        30.21451         3.14179
O         55.17896        45.84475        -2.32833
H         55.98602        45.33154        -2.54814
O         35.78183        35.48479         3.39054
H         34.92407        35.34997         3.86448
O         47.87251        33.23918        -1.24203
H         47.08205        32.84879        -1.67017
O         34.83049        49.90955        -2.34128
H         35.12597        50.75865        -2.76140
O         25.44081        41.38835         3.48523
H         24.62300        40.90337         3.72724
O         35.97893        37.90455         3.16105
H         36.16383        37.11152         3.73047
O         26.35543        33.51520         1.86168
H         27.11113        33.86480         2.38053
O         36.47520        30.40382         2.79803
H         36.42163        31.23961         3.31396
O         37.58123        53.00396         0.72116
H         38.34396        53.51935         1.05763
O         50.24923        24.06087         2.69748
H         50.33236        23.39434         3.41245
O         45.36010        46.22895         1.76739
H         44.62641        45.71798         2.19559
O         41.18732        38.03346         2.45914
H         41.84326        38.62297         2.88666
O         43.61302        21.92968         2.12818
H         43.50376        22.77417         2.61445
O         54.02336        31.00220        -1.86732
H         53.23938        30.57033        -2.26896
H         22.35592        27.34122        -2.77035
H         22.26738        29.71573        -2.13083
H         22.27268        31.59976        -1.85473
H         22.21193        33.93572        -1.16532
H         22.05531        35.58027        -0.08448
H         21.99649        37.91356         0.60129
H         21.99161        39.77625         1.12156
H         21.99647        42.17257         1.48686
H         22.00523        44.04547         1.97024
H         22.07179        46.50316         2.05131
H         25.73829        24.04809        -3.17073
H         23.61706        25.26668        -3.11708
H         25.36118        49.84713         1.47971
H         23.29333        48.58727         1.78374
H         27.37427        23.24289        -3.51836
H         27.06970        50.77269         1.34317
H         29.50234        22.14007        -3.92077
H         29.12719        51.94404         0.74748
H         32.99669        19.57352        -2.67250
H         31.11711        20.91685        -3.42024
H         32.87190        54.03206         0.32552
H         30.82845        52.83373         0.90493
H         34.59118        18.55003        -2.34322
H         34.29898        54.96292        -0.63289
H         36.62798        17.26943        -2.04795
H         36.29390        56.14379        -1.41543
H         40.26407        14.95818        -1.34967
H         38.21342        16.24785        -1.73260
H         40.10965        58.30710        -1.95550
H         37.98014        57.10078        -1.70532
H         42.68158        14.87391        -0.73939
H         42.58181        58.32335        -1.99235
H         44.73334        16.00550        -0.00312
H         44.72096        57.12390        -1.90427
H         47.79447        18.03235         2.46330
H         46.04741        16.85709         1.16119
H         48.43335        54.92224        -2.01269
H         46.35405        56.15683        -1.92349
H         50.39404        19.90837         3.25131
H         50.06816        53.98484        -1.96662
H         52.47299        20.79224         2.29089
H         52.17124        52.80549        -1.72327
H         56.02714        22.36656         0.54885
H         53.95669        21.37136         1.29821
H         55.93331        50.67043        -1.31370
H         53.82417        51.85932        -1.56862
H         57.77213        23.38969        -0.12912
H         57.51050        49.90171        -0.31998
H         59.84666        24.68845         0.14200
H         61.01833        26.80074         0.54827
H         61.02510        29.24998         0.61315
H         61.04465        31.15658         0.62336
H         61.04191        33.57257         0.43889
H         61.08570        35.43324        -0.24049
H         61.09242        37.85515        -0.19839
H         61.03081        39.81731         0.30410
H         60.98884        42.25439         0.21215
H         60.93165        44.13691         0.40531
H         60.87667        46.58992         0.35507
H         59.62927        48.70212         0.09163
