         324
 CSIRO Nanostructure Databank - Neutral Graphene Oxide Data Set
C          1.29272         3.52892        -1.17003
C          0.11591         4.22092        -1.18013
C          1.16661         6.28166        -0.35266
C          0.06572         5.61381        -0.82259
C          1.15521         7.71713        -0.07137
C         -0.05610         8.42106        -0.01806
C          1.12498        10.53749         0.08401
C         -0.06952         9.81165         0.08688
C          1.07773        12.01158        -0.06954
C         -0.02371        12.78009         0.52574
C          1.22096        14.88085         0.25581
C          0.03140        14.13029         0.61255
C          1.18367        16.32647         0.24834
C         -0.01227        17.03727         0.19088
C          1.15773        19.20493         0.08648
C         -0.02316        18.43494         0.16861
C          1.08418        20.63419         0.06186
C         -0.10372        21.36804         0.24300
C          1.07376        23.50938        -0.00705
C         -0.12417        22.75337         0.12411
C          1.02798        24.96672        -0.01325
C         -0.02655        25.71169        -0.52055
C          1.07644        27.86431        -0.06184
C          0.00548        27.12958        -0.56279
C          1.17455        29.28669        -0.18732
C          3.73075         3.54975        -0.86007
C          2.51576         4.16876        -0.75094
C          3.68353         6.31896        -0.13983
C          2.41972         5.49996        -0.04063
C          3.62774         7.69886         0.08443
C          2.38575         8.43056         0.09076
C          3.60680        10.63522         0.07766
C          2.37738         9.86480         0.10984
C          3.65335        12.00457        -0.22644
C          2.37790        12.75665        -0.33346
C          3.62658        14.92317        -0.41833
C          2.39399        14.20291        -0.05975
C          3.75098        16.34709        -0.01437
C          2.44554        17.08376         0.28881
C          3.65464        19.19102        -0.19168
C          2.44028        18.53301         0.04878
C          3.58849        20.63295        -0.53173
C          2.28936        21.37915        -0.33446
C          3.57124        23.52644        -0.12550
C          2.30929        22.84032        -0.13065
C          3.55953        24.91792         0.41078
C          2.19908        25.65548         0.53009
C          3.50914        27.89362         0.76113
C          2.18712        27.14919         0.59462
C          3.58537        29.31026         0.33361
C          2.35366        29.97075         0.01554
C          6.17973         3.56178        -0.57030
C          4.96615         4.23095        -0.53003
C          6.16125         6.35775        -0.09931
C          4.92885         5.64278        -0.23781
C          6.15572         7.74974         0.17924
C          4.87187         8.40404         0.40413
C          6.14358        10.64823         0.24653
C          4.85940         9.96393         0.42597
C          6.11846        12.03388        -0.09517
C          4.90559        12.70242        -0.32392
C          6.17899        14.95043        -0.66062
C          4.91971        14.15455        -0.66491
C          6.17015        16.33922        -0.62609
C          4.96382        17.10475        -0.36765
C          6.20337        19.30832        -0.22183
C          4.91704        18.50087        -0.31769
C          6.17619        20.71448        -0.85028
C          4.85148        21.43000        -0.72930
C          6.01722        23.64576        -0.49480
C          4.76338        22.88501        -0.45599
C          5.99749        25.11694        -0.13011
C          4.76185        25.74575         0.38522
C          5.98093        27.85739         0.74034
C          4.76164        27.10915         0.68984
C          6.04224        29.23890         0.48873
C          4.82033        29.93620         0.21862
C          8.62827         3.54151        -0.25314
C          7.41344         4.23862        -0.31700
C          8.61917         6.36564         0.11440
C          7.40207         5.65887        -0.11884
C          8.61760         7.78420         0.27099
C          7.36276         8.48586         0.29566
C          8.62038        10.63209         0.52746
C          7.34250         9.91406         0.36751
C          8.65456        12.13089         0.15311
C          7.40201        12.70690        -0.41295
C          8.74838        14.86255        -0.71059
C          7.43858        14.18172        -0.78814
C          8.73453        16.31747        -1.01365
C          7.42607        17.09852        -0.90506
C          8.65170        19.25348        -0.47407
C          7.47032        18.55596        -0.59029
C          8.73011        20.71050        -0.36556
C          7.53288        21.48128        -1.00121
C          8.41083        23.78332        -0.63242
C          7.33918        22.95277        -0.54963
C          8.54590        25.15435        -0.10078
C          7.26366        25.73747         0.36803
C          8.47872        27.89493         1.31658
C          7.23213        27.11185         0.94560
C          8.53138        29.25772         0.65711
C          7.33201        29.89028         0.37861
C         11.05462         3.50049         0.12369
C          9.84542         4.21535         0.01827
C         11.05618         6.33291         0.47327
C          9.84498         5.64473         0.18830
C         11.06205         7.74423         0.59225
C          9.85922         8.47573         0.44073
C         11.11339        10.63296         0.45149
C          9.88880         9.91450         0.50257
C         11.14042        12.04291         0.12010
C          9.94508        12.75844        -0.15009
C         11.26163        14.82427        -0.78637
C          9.92668        14.14481        -0.53535
C         11.20009        16.27789        -0.39732
C         10.01818        17.05940        -0.80901
C         11.04257        19.09455         0.31190
C          9.96992        18.55725        -0.55293
C         11.00540        20.52441         0.82443
C          9.95017        21.27603         0.00486
C         11.18393        23.39121         0.49162
C         10.24823        22.65679        -0.20906
C         11.06590        24.85421         0.75086
C          9.82662        25.70176         0.49011
C         11.08421        27.82953         1.11162
C          9.78578        27.06050         1.21033
C         11.02517        29.27135         0.74658
C          9.80285        29.90186         0.52262
C         13.49358         3.42995         0.44237
C         12.27811         4.16062         0.37182
C         13.51165         6.26085         0.72004
C         12.28470         5.58552         0.56159
C         13.59446         7.70079         1.21388
C         12.24041         8.49581         1.18082
C         13.56915        10.59203         0.60619
C         12.34375         9.91596         0.64127
C         13.59118        12.00990         0.43745
C         12.41909        12.72004         0.10651
C         13.59952        14.88649         0.05688
C         12.44824        14.14352        -0.14583
C         13.59810        16.32161         0.24986
C         12.26150        16.91669         0.20234
C         13.83976        19.21906         1.11543
C         11.99169        18.22449         0.74777
C         13.64772        20.58055         0.78823
C         12.39622        21.23935         0.77445
C         13.61603        23.41308         0.78106
C         12.41714        22.67627         0.77128
C         13.64078        24.87742         0.93250
C         12.34133        25.62257         1.00820
C         13.45741        27.77168         0.39797
C         12.33391        27.09363         0.79254
C         13.46237        29.22791         0.28885
C         12.26265        29.92302         0.44954
C         15.96824         3.37035         0.66145
C         14.71712         4.09781         0.53884
C         15.96423         6.25081         0.45741
C         14.69975         5.52771         0.59553
C         16.00712         7.71961         0.59155
C         14.81090         8.44471         0.69572
C         16.07112        10.52509         0.43082
C         14.84285         9.86940         0.64403
C         16.23387        12.01559         0.62383
C         14.87431        12.72510         0.63091
C         16.08777        14.83302        -0.16805
C         14.86214        14.18708         0.37093
C         16.05725        16.35934        -0.06313
C         14.81117        17.02572         0.42400
C         16.16165        19.17525         0.45009
C         14.92989        18.44993         0.67142
C         16.15806        20.56600         0.34916
C         14.85312        21.25927         0.28155
C         16.12242        23.50323         0.19696
C         14.84175        22.77232         0.32090
C         16.07255        24.86606         0.04401
C         14.86836        25.61763         0.46650
C         15.93343        27.80775        -0.28604
C         14.68833        27.03660         0.02164
C         15.91534        29.28317        -0.14675
C         14.70090        29.92253         0.05142
C         18.45742         3.31138         0.87117
C         17.18261         4.00232         0.76663
C         18.46198         6.22364         0.91595
C         17.23767         5.46438         0.55576
C         18.49469         7.64816         0.52939
C         17.25565         8.37190         0.44784
C         18.50420        10.44038        -0.03543
C         17.27842         9.78900         0.33127
C         18.46264        11.79761        -0.52273
C         17.33324        12.67014        -0.24899
C         18.44234        14.92732        -0.82936
C         17.34272        14.07693        -0.39870
C         18.49204        16.34346        -0.48635
C         17.35766        17.01862        -0.01349
C         18.64876        19.16973         0.07890
C         17.45636        18.39922         0.57177
C         18.65080        20.62498         0.34080
C         17.36516        21.35944         0.26288
C         18.60421        23.52034        -0.06052
C         17.36224        22.75149         0.09879
C         18.57014        24.92822        -0.25183
C         17.24907        25.61083        -0.53354
C         18.49252        27.86285        -0.20141
C         17.22628        27.07189        -0.11963
C         18.37992        29.32277        -0.43058
C         17.16109        29.97528        -0.31293
C         19.64982         3.96185         0.90196
C         20.97103         6.17549         0.68607
C         19.74829         5.43516         1.02320
C         20.94115         7.50789         0.41008
C         19.71659         8.28501         0.33275
C         20.84803        10.22759        -0.72850
C         19.70758         9.67119        -0.11095
C         20.74401        11.43312        -1.41121
C         19.55307        12.16396        -1.34733
C         20.72391        15.15275        -1.75664
C         19.54274        14.43962        -1.56968
C         20.82910        16.45397        -1.25425
C         19.72685        17.08389        -0.67355
C         20.96006        19.30087        -0.69581
C         19.77110        18.51986        -0.38361
C         21.04797        20.63204        -0.46788
C         19.93729        21.39279         0.12899
C         21.03912        23.61652        -0.20603
C         19.86175        22.86446        -0.06236
C         20.99681        24.99840        -0.33762
C         19.76281        25.68110        -0.38615
C         20.80887        27.88546        -0.97677
C         19.73525        27.14200        -0.55018
C         20.73642        29.31449        -1.06880
C         19.58419        30.00924        -0.80137
O          2.80626        25.00711         1.67030
O         11.53745        25.11798         2.11514
O         10.34129        18.04084        -1.86306
O         19.02917         5.93521         2.22205
O          8.00648        16.71706        -2.20678
O         12.81007        18.59816         1.82920
O          2.71706        20.91168        -1.68628
O         14.03577         7.61619         2.56613
O          5.96752        24.74713        -1.53411
O          9.45584        25.98605        -0.90042
O          1.46948        12.40246        -1.43232
O         16.71921         5.83490        -0.76303
O          3.34083        16.60221         1.36509
O         14.60969        25.41511         1.90220
O          5.40230        20.94888        -2.04141
O          9.56918        23.31696        -1.22465
O         15.78765        15.65466        -1.33584
O         14.61553        22.01059        -0.94796
O         17.91741        27.39721         1.10078
O         19.42781        13.22420        -2.25250
O          4.05320        14.58458        -1.77227
O         14.86830        13.70487         1.75604
O          7.45609        13.10915        -1.81068
O         15.09561        27.27585        -1.36415
O         10.55714        27.32544         2.39682
O         19.52158        20.98637         1.48383
O          2.60397        27.67605         1.88780
O          7.15611        25.92162         1.81898
O          8.52599        11.70548         1.53538
O          4.78777         9.17306         1.64661
O         11.83227         8.68040         2.56461
H         12.61877         8.35099         3.09525
O          8.29011        28.21052         2.71633
H          8.17681        27.36173         3.19661
O         17.10580        25.60902        -1.98679
H         16.88863        24.69767        -2.27497
O          2.31601         5.16662         1.39402
H          1.51516         4.61096         1.50340
O         16.80639        12.11968         1.96282
H         16.33128        12.85514         2.42071
O         17.67536        18.22963         2.02274
H         18.12643        19.03789         2.35226
O         11.49889        14.75364        -2.22635
H         10.83888        15.32776        -2.67189
O          6.31174        19.62700         1.20924
H          6.23846        18.79408         1.72187
O         10.55793        20.53554         2.20223
H         11.21413        20.02334         2.72360
O          7.84598        21.48838        -2.40102
H          6.99751        21.60066        -2.88998
H          1.33582         2.49034        -1.52974
H         -0.80758         3.73698        -1.52669
H         -0.88283         6.14350        -0.98975
H         -1.01277         7.88619        -0.08248
H         -1.03256        10.33996         0.09003
H         -0.88741        12.23955         0.93870
H         -0.81620        14.67415         1.05187
H         -0.97108        16.50245         0.16498
H         -0.99691        18.94095         0.16048
H         -1.04591        20.84934         0.46630
H         -1.07827        23.28675         0.23395
H         -0.89977        25.19480        -0.94314
H         -0.83445        27.66132        -1.03258
H          0.29036        29.83588        -0.54360
H          3.79290         2.52505        -1.25836
H          2.38224        31.05446        -0.17247
H          6.20102         2.48314        -0.78554
H          4.86501        30.99349        -0.08283
H          8.63717         2.45003        -0.39068
H          7.34627        30.93555         0.03297
H         11.04773         2.40812        -0.00960
H          9.81431        30.93860         0.15075
H         13.46508         2.33202         0.38212
H         12.25190        31.01161         0.28638
H         15.91674         2.27248         0.72486
H         14.68113        31.02255         0.09008
H         18.44178         2.21084         0.84968
H         17.13684        31.07227        -0.40381
H         20.58645         3.38352         0.88975
H         21.92137         5.62397         0.62315
H         21.89451         8.00940         0.19223
H         21.78513         9.65992        -0.79085
H         21.56991        11.80120        -2.03327
H         21.54876        14.70213        -2.32246
H         21.77557        16.98829        -1.39904
H         21.82073        18.80413        -1.16150
H         21.94410        21.17501        -0.80126
H         22.01522        23.11345        -0.17626
H         21.93919        25.55897        -0.40037
H         21.75269        27.39820        -1.25888
H         21.63736        29.85906        -1.38432
H         19.55834        31.10304        -0.91143
