         621
 CSIRO Nanostructure Databank - Neutral Graphene Oxide Data Set
C          5.77007        31.95843         0.07916
C          5.78373        33.32157         0.18080
C          8.21743        27.62432        -0.06951
C          8.20306        29.02869        -0.02449
C          6.98826        29.78768        -0.01930
C          8.23428        31.90110         0.03265
C          6.99223        31.18578         0.03076
C          8.25680        33.33104         0.17284
C          7.01293        34.07016         0.26241
C          8.22380        36.21136         0.52492
C          7.02148        35.46621         0.36633
C          8.26107        37.60495         0.65248
C         10.64449        23.32416        -0.72865
C         10.70971        24.68129        -0.18738
C          9.52278        25.40106        -0.26987
C         10.77574        27.57706         0.01613
C          9.45964        26.86332        -0.24357
C         10.68709        29.02324         0.37038
C          9.44354        29.76350         0.02835
C         10.73461        31.88250        -0.15581
C          9.44841        31.15747         0.01726
C         10.73522        33.38180        -0.09570
C          9.46996        34.02825         0.26694
C         10.80595        36.18125         0.76020
C          9.47664        35.43565         0.65373
C         10.76455        37.65458         0.56583
C          9.47006        38.35594         0.73226
C         10.67669        40.48776         1.17137
C          9.48871        39.73497         0.94857
C         10.59105        41.82496         1.55230
C         13.29693        19.08695        -1.20765
C         13.13132        20.44086        -0.90363
C         11.84318        21.05526        -1.07273
C         13.32820        23.25974         0.31063
C         11.50936        22.27496        -0.43455
C         13.18172        24.66801         0.40119
C         11.95399        25.36022         0.26912
C         13.15867        27.52925         0.70587
C         11.98401        26.79936         0.39598
C         13.24293        28.96283         0.60091
C         11.98518        29.74364         0.52378
C         13.27798        31.93360         0.27869
C         12.02944        31.16663         0.07366
C         13.29706        33.29967         0.23094
C         12.07013        34.11813         0.05028
C         13.28254        36.25105         0.72410
C         12.09349        35.52694         0.48856
C         13.27664        37.61691         1.06922
C         12.08112        38.39986         0.72027
C         13.09153        40.37576         1.91173
C         12.07571        39.91348         0.88030
C         12.80320        41.56736         2.49338
C         11.76431        42.48644         2.04463
C         13.24006        44.56179         2.11709
C         11.97517        43.86441         2.03332
C         13.26095        45.87178         1.60230
C         15.85764        14.83991        -1.17282
C         15.79910        16.25265        -1.00377
C         14.59205        16.96878        -1.21420
C         15.76278        19.07686        -0.86821
C         14.54194        18.37243        -1.10930
C         15.74858        20.54203        -0.89459
C         14.38694        21.26313        -0.75568
C         15.70832        23.35188        -0.17200
C         14.47158        22.62353        -0.17988
C         15.71954        24.68334         0.31596
C         14.45476        25.33224         0.72261
C         15.69837        27.56608         1.01106
C         14.42241        26.83341         0.98873
C         15.67703        28.95211         1.02292
C         14.44534        29.65969         0.74767
C         15.80430        31.86199         0.52529
C         14.51435        31.11611         0.39748
C         15.80027        33.34536         0.60124
C         14.56504        34.06220         0.30309
C         15.84330        36.20435         1.02213
C         14.58950        35.55734         0.54406
C         15.80972        37.72393         0.95675
C         14.51852        38.27802         1.58529
C         15.72511        40.55478         1.96840
C         14.43147        39.69263         2.07067
C         15.85189        41.76306         2.99539
C         14.64418        42.65198         2.99550
C         15.77832        44.64584         2.25680
C         14.50795        43.89508         2.43841
C         15.74373        46.03027         1.67208
C         14.44176        46.60913         1.27826
C         15.66263        48.46805         0.15654
C         14.45024        47.82402         0.59604
C         15.65861        49.73818        -0.42242
C         18.37376        10.44111        -1.15974
C         18.37666        11.94272        -0.95131
C         17.04733        12.62698        -1.17036
C         18.19650        14.81167        -0.52967
C         17.03138        14.12518        -0.95143
C         18.17282        16.20675        -0.35416
C         16.98997        16.94989        -0.62029
C         18.17963        19.13567        -0.40713
C         16.96811        18.39324        -0.58297
C         18.20531        20.55533        -0.47662
C         16.98272        21.27071        -0.55937
C         18.19040        23.37286        -0.16422
C         16.96034        22.66726        -0.35167
C         18.17568        24.75433         0.17830
C         16.93511        25.38331         0.47160
C         18.28221        27.50414         0.95355
C         16.93769        26.74775         1.03405
C         18.23031        28.98329         1.16397
C         16.92123        29.70917         1.30625
C         18.22762        31.88235         1.04131
C         16.90056        31.23238         1.33978
C         18.21462        33.28485         0.65771
C         16.95743        34.03730         0.87285
C         18.32974        36.12770         1.50986
C         16.99442        35.46610         1.14950
C         18.11947        37.50502         2.19164
C         17.16420        38.41078         1.35973
C         18.22647        40.35206         2.39800
C         17.01382        39.73639         2.08375
C         18.28472        41.79236         2.51896
C         17.08800        42.52434         2.61402
C         18.24979        44.52994         1.90869
C         17.04573        43.87650         2.26092
C         18.18207        45.77189         1.10365
C         16.95210        46.55758         1.01818
C         18.15028        48.30664        -0.23009
C         16.92825        47.74775         0.31624
C         18.05117        49.50534        -1.07405
C         16.83627        50.34786        -0.97529
C         18.08504        52.27714        -1.96186
C         16.88784        51.65490        -1.42622
C         18.08383        53.63121        -2.29319
C         20.85875         6.24346        -1.06608
C         20.79836         7.60805        -0.67357
C         19.59490         8.28831        -0.65311
C         20.86202        10.44175        -0.67685
C         19.50696         9.76393        -0.36817
C         20.78267        11.92664        -0.39187
C         19.50684        12.61131        -0.58319
C         20.69925        14.81169        -0.33835
C         19.42120        14.04059        -0.08857
C         20.69333        16.25032        -0.05006
C         19.40665        16.91207         0.08038
C         20.70375        19.13025        -0.27733
C         19.41434        18.46229        -0.01475
C         20.70297        20.56436        -0.46551
C         19.44740        21.27369        -0.39877
C         20.67129        23.42314        -0.28070
C         19.43576        22.68258        -0.29802
C         20.65309        24.81559        -0.18866
C         19.41332        25.50146         0.10656
C         20.57349        27.66369        -0.33069
C         19.42001        26.88421         0.28212
C         20.56281        29.15026         0.03792
C         19.39109        29.78598         0.69760
C         20.66825        31.86351         1.39061
C         19.43940        31.20268         1.14619
C         20.72969        33.15112         2.00186
C         19.48903        33.79720         2.56715
C         20.65051        36.03736         2.61695
C         19.35515        35.31784         2.37919
C         20.69491        37.50895         2.38875
C         19.48281        38.21237         2.32042
C         20.73550        40.33973         2.34353
C         19.48593        39.62985         2.35333
C         20.74378        41.75882         2.26044
C         19.51887        42.47397         2.31226
C         20.73510        44.62963         1.93681
C         19.47596        43.86767         2.03855
C         20.72056        45.99556         1.26972
C         19.45006        46.41687         0.62875
C         20.65371        48.34820        -0.38205
C         19.39607        47.74767         0.01583
C         20.63190        49.54217        -1.12337
C         19.34628        50.12473        -1.55869
C         20.53601        52.11949        -2.35140
C         19.32690        51.53214        -1.99430
C         20.52852        53.42799        -3.00989
C         19.21462        54.25712        -2.96927
C         20.53231        56.33723        -3.47055
C         19.32619        55.71319        -3.15272
C         20.60435        57.70146        -3.84131
C         23.19484         3.82087        -2.69826
C         22.05617         4.33559        -2.08180
C         23.27163         6.39795        -1.55752
C         22.06297         5.64468        -1.51997
C         23.36019         7.68925        -0.85914
C         22.07769         8.29534        -0.33735
C         23.35407        10.53169        -0.09378
C         22.03375         9.76366         0.05640
C         23.21399        11.91204         0.13755
C         21.93674        12.59185        -0.05566
C         23.14971        14.85145         0.41138
C         21.98798        14.07527        -0.17881
C         23.16406        16.29620         0.01563
C         21.91007        16.96884        -0.05132
C         23.16232        19.03266        -0.58873
C         21.88441        18.39892        -0.24439
C         23.16557        20.54364        -0.77111
C         21.90726        21.27434        -0.57787
C         23.12618        23.41680        -0.54782
C         21.93277        22.71692        -0.46015
C         23.22331        24.85453        -0.09903
C         21.89697        25.57899        -0.17433
C         23.18338        27.67428         0.14233
C         21.88597        26.93975        -0.10607
C         23.12625        29.17444        -0.12371
C         21.84719        29.93326         0.10223
C         23.19402        31.76070         1.33844
C         21.88987        31.26427         0.81711
C         23.21900        33.12165         2.03444
C         21.92747        33.83693         2.20226
C         23.25606        35.99373         2.56201
C         21.93167        35.22976         2.68620
C         23.17657        37.44605         2.36743
C         21.96627        38.18900         2.39434
C         23.21930        40.37747         2.45070
C         21.97941        39.62639         2.33662
C         23.24478        41.76137         2.40550
C         22.02232        42.45238         1.85837
C         23.18307        44.70583         1.87754
C         22.02279        43.95585         2.00012
C         23.16857        46.04217         1.31222
C         21.97652        46.58405         0.81374
C         23.13338        48.37985        -0.41655
C         21.91764        47.76787        -0.00172
C         23.10030        49.57523        -1.19578
C         21.84461        50.18882        -1.49011
C         23.01175        52.05565        -2.57922
C         21.80078        51.45766        -2.14177
C         22.98908        53.40460        -3.11056
C         21.81276        54.11655        -3.19106
C         23.09451        56.28808        -3.67161
C         21.81070        55.58899        -3.33869
C         23.06483        57.66498        -4.19404
C         21.81455        58.35141        -4.23367
C         22.98761        60.29247        -5.12368
C         21.80760        59.69018        -4.70705
C         24.35572         4.58611        -2.80507
C         25.56028         6.70953        -2.36550
C         24.40820         5.89098        -2.24127
C         25.62143         8.02735        -1.84661
C         24.53382         8.56082        -1.06373
C         25.82575        10.59971        -0.73568
C         24.58014         9.87482        -0.53798
C         26.10880        11.80593        -0.07552
C         24.33326        12.75397         0.47735
C         25.72419        14.82977         0.20632
C         24.46306        14.12115         0.25647
C         25.66591        16.24347         0.13962
C         24.41575        16.98376        -0.01677
C         25.70763        19.08808        -0.64678
C         24.42680        18.36508        -0.28478
C         25.66275        20.60874        -0.57765
C         24.45659        21.25268        -0.62629
C         25.64362        23.44505        -1.12833
C         24.37156        22.69892        -0.88676
C         25.58580        24.94637        -1.19017
C         24.37668        25.65940        -0.69778
C         25.58012        27.86290        -0.76959
C         24.37511        27.01224        -0.53962
C         25.65713        29.12754        -0.04956
C         24.41423        29.89738         0.11317
C         25.63148        31.81601         1.12889
C         24.44113        31.22193         0.77299
C         25.68832        33.14936         1.69427
C         24.49891        33.85213         2.00051
C         25.74150        35.93772         2.15488
C         24.51763        35.26178         2.20531
C         25.74242        37.41967         2.13513
C         24.44466        38.16749         2.17735
C         25.80024        40.31576         2.56576
C         24.47553        39.60098         2.61244
C         25.80381        41.81155         2.49639
C         24.48642        42.56278         2.56005
C         25.75985        44.80345         2.08614
C         24.46413        44.06481         2.27858
C         25.77030        46.17232         1.44483
C         24.40820        46.81001         1.07298
C         25.59635        48.47050        -0.38465
C         24.40048        47.88252         0.05019
C         25.58202        49.56435        -1.30603
C         24.31318        50.16316        -1.67052
C         25.46977        51.90436        -3.03765
C         24.24434        51.36986        -2.41015
C         25.51402        53.30129        -3.47685
C         24.23801        53.99539        -3.65557
C         25.58977        56.11292        -4.19129
C         24.27905        55.45234        -4.03462
C         25.61902        57.59846        -4.48784
C         24.26063        58.27598        -4.60363
C         24.20667        59.59936        -5.07422
C         26.74763         8.82620        -2.14617
C         28.01658        10.92706        -1.82740
C         26.86795        10.12346        -1.61035
C         28.12625        12.23958        -1.31134
C         27.06474        12.75544        -0.48516
C         28.17923        14.90073        -0.30246
C         27.00096        14.15026        -0.10014
C         28.24960        16.30090         0.11455
C         26.89695        17.02508         0.29821
C         28.18059        19.27507         0.02451
C         26.88408        18.51429         0.11737
C         28.17190        20.68234        -0.45152
C         26.92444        21.36313        -0.63305
C         28.16099        23.50641        -0.93167
C         26.92898        22.75023        -0.88108
C         28.14907        24.90676        -1.04080
C         26.90271        25.67394        -1.26686
C         28.20701        27.79994        -0.72311
C         26.94189        27.16176        -1.09500
C         28.22027        29.22216        -0.36805
C         26.88412        29.89007         0.00208
C         28.19150        31.65513         1.35526
C         26.88925        31.04960         0.95195
C         28.19817        33.10805         1.67252
C         26.96125        33.81334         1.79584
C         28.23660        35.90444         2.04976
C         26.98320        35.22548         2.02064
C         28.28926        37.34952         2.35270
C         27.01442        38.12953         2.48017
C         28.24544        40.23677         2.02747
C         27.05973        39.59571         2.26543
C         28.28746        41.69578         1.59116
C         26.97761        42.47810         1.83445
C         28.28782        44.71081         1.72651
C         26.98502        43.97048         1.78649
C         28.24350        46.05776         1.06332
C         26.93531        46.63119         0.70824
C         28.14473        48.43116        -0.56276
C         26.92067        48.06826         0.24737
C         28.07468        49.56050        -1.40400
C         26.81003        50.11222        -1.76751
C         28.03892        51.99798        -2.95790
C         26.80024        51.21915        -2.73301
C         27.96381        53.28046        -3.52108
C         26.72338        53.95230        -3.74788
C         26.72597        55.36504        -4.11431
C         29.28306        13.03483        -1.48526
C         30.56800        15.05371        -0.94816
C         29.35093        14.32025        -0.91754
C         30.64618        16.41252        -0.57604
C         29.44430        17.11302        -0.19231
C         30.65239        19.23708        -0.33445
C         29.44132        18.50636        -0.11274
C         30.64494        20.65116        -0.44651
C         29.39590        21.37307        -0.55679
C         30.66295        23.46180        -0.87935
C         29.42044        22.78804        -0.81067
C         30.69912        24.87922        -1.30391
C         29.39532        25.66681        -1.26668
C         30.65654        27.80206        -0.69329
C         29.42868        27.11668        -0.89313
C         30.69494        29.07792        -0.02337
C         29.45903        29.79669         0.20444
C         30.68648        31.54884         1.42649
C         29.44437        30.98775         0.90463
C         30.69076        33.04202         1.84900
C         29.41930        33.79029         1.76723
C         30.73255        35.89799         1.95508
C         29.45243        35.20741         1.91043
C         30.73425        37.34791         1.92931
C         29.52297        38.08540         2.03182
C         30.70530        40.18828         1.60957
C         29.49009        39.48682         1.88344
C         30.77197        41.62018         1.80804
C         29.55319        42.43620         2.05166
C         30.79373        44.72059         1.43884
C         29.58887        43.96422         1.90068
C         30.68998        45.90241         0.61279
C         29.46981        46.57582         0.42388
C         30.58851        48.28689        -0.95506
C         29.37895        47.76308        -0.35783
C         30.52329        49.48718        -1.69845
C         29.29790        50.13514        -1.94141
C         29.25829        51.37949        -2.62047
C         31.86776        17.12176        -0.61701
C         33.11942        19.23998        -0.45035
C         31.89791        18.51986        -0.44929
C         33.14136        20.64234        -0.41274
C         31.88182        21.36174        -0.48773
C         33.15618        23.48306        -0.46568
C         31.87763        22.76666        -0.61225
C         33.25219        24.95169        -0.92543
C         31.99070        25.65779        -1.33992
C         33.17712        27.88344        -0.81292
C         31.92423        27.18134        -1.14102
C         33.15915        28.91137         0.23972
C         31.90359        29.65430         0.44388
C         33.16259        31.62219         1.38926
C         31.96119        30.93435         1.05840
C         33.18689        33.01986         1.67514
C         31.97064        33.75251         1.77738
C         33.23536        35.87258         2.02721
C         31.94062        35.17377         1.88506
C         33.23297        37.38825         1.89899
C         31.93828        38.06480         1.72408
C         33.17807        40.13741         1.16125
C         31.91759        39.45266         1.51161
C         33.21191        41.65625         1.30573
C         32.02392        42.18278         1.94906
C         33.27331        44.64473         1.02035
C         32.07363        44.27208         1.72591
C         33.16167        45.79926         0.22452
C         31.90844        46.45353         0.04590
C         31.81710        47.62539        -0.73327
C         34.37823        21.34736        -0.38580
C         35.64700        23.48377        -0.37658
C         34.43486        22.74657        -0.42860
C         35.76543        24.84020        -0.78965
C         34.57797        25.40278        -1.32661
C         35.61011        28.18212        -1.02320
C         34.38388        27.54479        -1.37104
C         35.64948        29.23756        -0.13904
C         34.45279        29.55506         0.65724
C         35.75240        31.57562         1.59113
C         34.43693        30.86960         1.37958
C         35.70376        33.04569         1.68624
C         34.48032        33.72623         1.72560
C         35.72174        35.90660         1.68410
C         34.49857        35.15854         1.79862
C         35.70336        37.34862         1.54884
C         34.48942        38.07279         1.53151
C         35.68598        40.21192         1.19467
C         34.47072        39.44997         1.26406
C         35.66215        41.65322         1.14372
C         34.49062        42.41769         1.26663
C         34.45553        43.82542         1.07182
C         37.05140        25.52360        -0.56298
C         38.62978        27.44246        -0.16347
C         37.46313        26.82389        -0.78631
C         38.80995        28.80952        -0.10452
C         36.85581        29.98590         0.06778
C         38.31096        31.57699         1.27920
C         36.99392        30.96355         1.00975
C         38.28218        33.03228         1.68421
C         36.98079        33.78256         2.03882
C         38.20072        35.95912         1.53897
C         36.96083        35.23541         1.64376
C         38.15640        37.37923         1.43945
C         36.93251        38.08086         1.40088
C         36.89778        39.49739         1.25919
C         39.82573        29.62086         0.54257
C         40.79518        31.73930         1.27817
C         39.62643        30.93844         0.91081
C         40.74997        33.08371         1.41634
C         39.46663        33.82830         1.15093
C         39.43244        35.27578         1.52804
O         29.97074        25.19230        -2.53328
O         34.57440        26.45232        -2.25547
O         22.68122        56.18125        -2.27032
O         20.65189        45.87376         2.72223
O         19.52440        29.79573        -0.77729
O         29.56541        43.29279         3.21187
O         11.39532        33.98353        -1.25681
O         10.33851        27.39514        -1.35511
O         33.88711        28.46224         1.45142
O         26.63508        43.18414         0.57838
O         23.16528        19.65022        -1.94640
O         19.66581        35.81890         3.71670
O         23.25126        31.86097         2.79297
O         18.74859        33.21655         3.33968
O         13.55304        42.01229         3.59043
O         19.28675        17.75759         1.26562
O         21.52508        14.47899        -1.50950
O         15.86898        45.83290         3.13485
O         27.37743        19.20579         1.28602
O         27.54466        30.14156        -1.29092
O         36.73927        27.66856        -1.66312
O         19.14154        33.80955        -0.00255
O         25.12936        47.19207         2.29761
O         32.97668        41.01662         0.00411
O         32.00591        26.55550        -2.46325
O         28.30803        45.90084         2.56018
O         37.90530        29.64281        -0.79119
O         11.53279        38.04080        -0.61594
O         27.69078        37.66401         3.67816
O         11.49452        31.34010        -1.28551
O         10.14846        35.68499         1.96979
O         32.20995        43.31585         2.74720
O         25.14553        44.78114         3.37988
O         26.14586        25.34421        -2.48130
O         15.08432        21.17768        -2.04455
O         38.52533        32.02631         2.69031
O         27.68551        16.58290         1.43600
O         14.51136        38.58684         3.02349
O         18.78808        45.42936        -0.22737
O         26.07422        50.94383        -3.97850
O         11.15459        29.43516         1.70605
O         14.41445        25.85863         2.09400
O         33.31051        36.74326         3.21740
O         17.70691        29.28929         2.48008
O         24.01383        54.45173        -5.06530
O         27.45883        30.75912         2.27919
O         23.78878        29.73565        -1.27415
O         26.17095        27.86351        -2.10014
O         25.39973        12.08945         1.09421
O         33.14589        24.58954         0.49639
O         17.84280        26.82676         2.17330
O         22.72926        35.51491         3.86645
O         24.86641        22.93359        -2.27334
O         25.13969        37.94428         0.88452
O         14.72194        35.01723        -0.81647
O         25.31699        42.34876         3.74793
O         15.45770        31.29015        -0.75590
O         19.65570        53.51475        -4.17545
O         12.27715        22.47195         0.73702
O         21.83233        31.17531        -0.64964
O         18.53472        49.25879        -2.43864
O         35.11242        30.83673         2.68958
O         22.93171         7.55282         0.57573
O         25.22160        39.82579         3.83517
O         30.63173        31.96276         2.82659
O         19.15621         9.95677         1.01960
H         19.97132         9.79505         1.55784
O         22.88631        14.84232         1.85963
H         23.63442        15.29186         2.30713
O         16.54410        31.61241         2.69853
H         17.22497        31.23592         3.30084
O         22.10571        42.27557         0.38052
H         21.88780        41.33914         0.18029
O         23.57698        24.77818         1.34561
H         22.86240        24.27866         1.79807
O         15.64732        38.02620        -0.45838
H         15.08084        37.34243        -0.87705
O         20.39458        27.60612        -1.77725
H         19.87377        28.39954        -2.04197
O         17.50009        37.33868         3.46710
H         18.12560        36.84802         4.05152
O         19.34249        13.94537         1.36595
H         18.58656        13.36361         1.59331
O         18.51332        10.12783        -2.56078
H         17.79879        10.58533        -3.05041
O         21.76600         9.78243         1.48727
H         22.35091         9.09959         1.88840
O         25.96456        18.75734        -2.04870
H         25.17454        19.06232        -2.55425
O         17.84673        38.77876         0.14509
H         18.18766        37.94928        -0.27234
O         27.04143        48.89555         1.46069
H         26.38654        48.53618         2.11218
O         23.42514        27.58373         1.58221
H         23.52752        26.62118         1.79888
O         26.38002        58.24553        -3.45640
H         26.24875        59.21241        -3.53582
O         21.16580        10.27377        -2.07985
H         20.32589        10.37292        -2.59190
O         16.07426        11.98710        -0.33147
H         15.27163        12.54673        -0.30173
O         15.73997        41.13077         0.64882
H         15.94901        40.42263        -0.00210
O         28.48967        41.58381         0.15253
H         27.82396        42.16061        -0.29333
O         36.93913        33.81845         3.50436
H         37.19258        32.91663         3.81302
O         39.25516        33.79846        -0.31609
H         39.94781        34.35757        -0.72792
O         19.01385        36.39493         0.26295
H         19.12139        35.51382        -0.19847
O         12.47527        40.47099        -0.39865
H         12.05806        39.90971        -1.09225
O         16.02797        41.19899         4.30228
H         15.14626        40.90472         4.61975
H          4.81120        31.42082         0.04165
H          4.83467        33.87640         0.22203
H          7.26789        27.07073        -0.02473
H          6.02774        29.25152        -0.04577
H          6.06400        36.00886         0.34494
H          7.31012        38.15936         0.67627
H          9.86922        23.15700        -1.49208
H          8.59632        24.85918        -0.51549
H          8.52691        40.25583         1.08090
H          9.62757        42.35657         1.51305
H         12.39588        18.49289        -1.42422
H         11.11309        20.54943        -1.72296
H         11.13158        44.47939         1.67675
H         12.29654        46.31980         1.31332
H         14.94725        14.30953        -1.49461
H         13.67553        16.41108        -1.45703
H         13.49159        48.30508         0.34652
H         14.71299        50.30024        -0.46845
H         17.38999        10.03729        -0.79723
H         16.75084        12.44033        -2.25734
H         15.98116        52.27640        -1.36475
H         17.20811        54.25040        -2.04669
H         19.91587         5.68964        -1.18937
H         18.66688         7.73549        -0.86742
H         18.40617        56.31649        -3.10752
H         19.66693        58.27500        -3.90348
H         23.16970         2.80933        -3.12716
H         21.13256         3.74130        -2.04088
H         22.97129        61.32690        -5.49418
H         20.85885        60.24383        -4.74818
H         25.24102         4.18637        -3.31882
H         26.42590         6.32658        -2.92599
H         26.15911        57.74467        -5.47488
H         25.13110        60.09972        -5.39969
H         27.54116         8.42162        -2.79051
H         28.84383        10.51843        -2.42510
H         28.89881        53.82762        -3.71472
H         27.70388        55.84979        -4.25337
H         30.14837        12.63234        -2.03104
H         31.47363        14.55345        -1.32166
H         31.45102        49.92334        -2.09809
H         30.20567        51.87485        -2.88193
H         32.80262        16.57822        -0.81773
H         34.06849        18.68485        -0.48547
H         34.03910        46.17851        -0.31989
H         32.73409        48.04624        -1.17253
H         35.31360        20.76969        -0.34208
H         36.56749        22.94327        -0.10779
H         36.62777        42.17375         1.05349
H         35.39475        44.29615         0.73761
H         37.73848        24.92534         0.05853
H         39.31479        26.79304         0.40071
H         39.10077        37.93742         1.35525
H         37.85036        40.04595         1.21284
H         40.85129        29.22037         0.61076
H         41.75529        31.21071         1.38795
H         41.66241        33.64982         1.65719
H         40.36483        35.85863         1.46762
