         424
 CSIRO Nanostructure Databank - Neutral Graphene Oxide Data Set
C          1.26810         3.33517        -0.23644
C          0.04789         4.00074         0.03285
C          1.11875         6.19669        -0.47674
C         -0.04123         5.36937         0.01011
C          1.09736         7.63203         0.00304
C         -0.05362         8.37299        -0.01975
C          1.10099        10.51358         0.39391
C         -0.05276         9.78789         0.16872
C          1.12630        11.96736         0.36265
C         -0.06845        12.69917         0.37730
C          1.12790        14.81755         0.26104
C         -0.07143        14.09166         0.33230
C          1.13349        16.26914         0.26183
C         -0.03298        17.01556         0.06063
C          1.14257        19.15501         0.21281
C         -0.00278        18.42432        -0.04445
C          1.18130        20.60355         0.11092
C          0.00114        21.33517        -0.21533
C          1.16822        23.45781         0.01769
C         -0.01199        22.71198        -0.22689
C          1.15897        24.89844         0.10701
C         -0.05816        25.64925        -0.01403
C          1.11142        27.79654         0.16045
C         -0.06810        27.03004        -0.01963
C          1.11101        29.20861         0.10305
C         -0.06128        29.97411         0.01361
C          1.12928        32.11579         0.18961
C         -0.03338        31.38364        -0.02560
C          1.17688        33.55423         0.08261
C         -0.01581        34.31218        -0.07770
C          1.24688        36.37455        -0.30219
C          0.01502        35.68235        -0.24940
C          1.28689        37.78636        -0.53510
C          3.73534         3.42298        -0.49596
C          2.47296         4.07706        -0.33728
C          3.65124         6.22404        -0.15818
C          2.43692         5.49388        -0.25565
C          3.63374         7.61759         0.11016
C          2.35180         8.28108         0.40785
C          3.68909        10.54184         0.68319
C          2.35559         9.78644         0.65852
C          3.61161        11.98623         0.25591
C          2.37857        12.67515         0.29453
C          3.59841        14.82797         0.21279
C          2.36840        14.11060         0.23968
C          3.59024        16.27004         0.31735
C          2.37915        16.95835         0.40347
C          3.64083        19.13604         0.56873
C          2.33709        18.41601         0.78543
C          3.61231        20.62248         0.84572
C          2.37217        21.32122         0.33178
C          3.62057        23.47142         0.30487
C          2.38840        22.74366         0.22957
C          3.60841        24.89398         0.30801
C          2.36808        25.59250         0.29873
C          3.63814        27.78707         0.39191
C          2.34075        27.06215         0.65349
C          3.65320        29.16914         0.29169
C          2.41524        29.97088        -0.04961
C          3.64747        32.11508         0.46088
C          2.35860        31.34875         0.63575
C          3.67401        33.50669         0.27198
C          2.42874        34.23675         0.08545
C          3.70948        36.34258        -0.22547
C          2.46465        35.64578        -0.13373
C          3.72660        37.75063        -0.49238
C          2.47940        38.45041        -0.63161
C          6.19854         3.42850        -0.90850
C          4.91730         4.13910        -0.54483
C          6.12903         6.28766        -0.21794
C          4.91039         5.54830        -0.32005
C          6.09170         7.68291        -0.06835
C          4.83547         8.38165         0.03713
C          6.01660        10.52962        -0.49153
C          4.82316         9.78607         0.04645
C          6.07378        11.99064        -0.07900
C          4.83834        12.68972         0.09612
C          6.06685        14.84155         0.07498
C          4.82728        14.12526         0.13248
C          6.04608        16.29451         0.15802
C          4.84548        16.98851         0.30919
C          6.09110        19.16915         0.39503
C          4.82489        18.44769         0.43248
C          6.09678        20.60723         0.37814
C          4.88145        21.33344         0.46239
C          6.10497        23.43320         0.20482
C          4.87439        22.73657         0.32959
C          6.10018        24.91411        -0.09370
C          4.84192        25.63831         0.31843
C          6.12922        27.76229         0.28441
C          4.86860        27.03922         0.38111
C          6.12311        29.19596         0.33045
C          4.89243        29.87980         0.36172
C          6.22232        32.05593         0.58071
C          4.87638        31.32059         0.63862
C          6.18267        33.54924         0.51046
C          4.90874        34.24297         0.23520
C          6.17939        36.34942        -0.21294
C          4.93904        35.63176        -0.05859
C          6.18479        37.75644        -0.49274
C          4.94422        38.43498        -0.61811
C          8.66302         3.51753        -0.54530
C          7.44970         4.19400        -0.54985
C          8.60779         6.27587         0.01196
C          7.40687         5.58702        -0.27313
C          8.54783         7.72170         0.47657
C          7.31697         8.45291         0.00414
C          8.57703        10.52890        -0.61696
C          7.31214         9.79853        -0.23129
C          8.57265        12.02218        -0.30446
C          7.29530        12.70108        -0.14306
C          8.52725        14.90121        -0.38087
C          7.27332        14.13172        -0.05234
C          8.49943        16.30863         0.14006
C          7.31462        17.00645         0.21088
C          8.52124        19.19011         0.15370
C          7.30228        18.46785         0.31885
C          8.55373        20.59039         0.09444
C          7.32946        21.31623         0.23678
C          8.58121        23.47215         0.05769
C          7.32240        22.74226         0.20513
C          8.58253        24.84480        -0.01903
C          7.35797        25.58811         0.43437
C          8.56554        27.77219        -0.02025
C          7.35023        27.07304         0.15858
C          8.58649        29.17491        -0.00808
C          7.37346        29.91981         0.19033
C          8.54619        32.04120        -0.53677
C          7.39041        31.32061         0.12226
C          8.68678        33.49667        -0.10436
C          7.47050        34.26169         0.27444
C          8.63972        36.37550        -0.20340
C          7.43341        35.69208        -0.10053
C          8.65476        37.78176        -0.47392
C          7.41668        38.44304        -0.62741
C         11.12292         3.48685        -0.33213
C          9.87622         4.18433        -0.24650
C         11.06294         6.25570         0.49424
C          9.82549         5.57535         0.06362
C         11.07615         7.76044         0.54963
C          9.82099         8.48598         0.20224
C         11.10435        10.51724        -0.36100
C          9.82732         9.79483        -0.15873
C         11.07737        12.02516        -0.47548
C          9.77930        12.73894        -0.30664
C         11.03263        14.88551        -0.05866
C          9.82111        14.15847        -0.14025
C         11.05170        16.28280         0.13023
C          9.78222        17.01616         0.48127
C         11.07501        19.16196        -0.09888
C          9.76217        18.42704        -0.05399
C         11.05522        20.61877         0.06221
C          9.82021        21.30566         0.01499
C         11.06156        23.40671         0.19482
C          9.83348        22.72294         0.04214
C         11.00364        24.90691         0.38148
C          9.86102        25.51474        -0.46541
C         11.03404        27.74648         0.28303
C          9.85152        27.09210        -0.47879
C         11.09609        29.21370        -0.05599
C          9.84731        29.90795        -0.14715
C         11.09890        31.96836        -0.63336
C          9.83674        31.27785        -0.36988
C         11.10142        33.50384        -0.63311
C          9.84767        34.18349        -0.24826
C         11.16100        36.34407        -0.29159
C          9.90945        35.64651         0.16982
C         11.13923        37.76538        -0.51214
C          9.90301        38.45868        -0.57516
C         13.58573         3.46217        -0.40389
C         12.35060         4.12111        -0.17139
C         13.63198         6.28824         0.11884
C         12.38365         5.51981         0.31788
C         13.63895         7.70718         0.16528
C         12.38941         8.46586         0.41174
C         13.55628        10.59685         0.00545
C         12.37989         9.88632         0.00678
C         13.55248        12.05003        -0.12323
C         12.34028        12.73663        -0.24719
C         13.58259        14.87937         0.08686
C         12.34124        14.22520        -0.45034
C         13.52593        16.27300         0.62666
C         12.27302        17.01396         0.22856
C         13.50596        19.15356         0.46529
C         12.30152        18.41261         0.21992
C         13.48173        20.55103         0.55235
C         12.27330        21.29612         0.32848
C         13.54829        23.44315         0.52879
C         12.27711        22.72319         0.37915
C         13.58282        24.84866         0.36812
C         12.33147        25.56051         0.06062
C         13.60858        27.76614         0.21416
C         12.34077        27.04510        -0.00752
C         13.58359        29.18369         0.10698
C         12.33614        29.88389        -0.09579
C         13.57552        32.01926        -0.29214
C         12.36837        31.29233        -0.34850
C         13.57461        33.46498        -0.37335
C         12.37484        34.18928        -0.40655
C         13.61430        36.32716        -0.49295
C         12.36153        35.63104        -0.36300
C         13.60365        37.75836        -0.68398
C         12.36437        38.44113        -0.72098
C         16.04775         3.46855        -0.53939
C         14.80958         4.14580        -0.34737
C         16.05288         6.29587        -0.27995
C         14.82105         5.58558        -0.16597
C         16.05983         7.72639        -0.23971
C         14.82041         8.42638        -0.07046
C         16.01324        10.57889        -0.04313
C         14.83043         9.88253         0.00767
C         16.03318        12.01539         0.39802
C         14.78511        12.75785         0.00665
C         16.04849        14.89292         0.28641
C         14.78680        14.17986         0.12964
C         16.05327        16.31418         0.33702
C         14.80245        17.05169         0.42080
C         16.00473        19.21029         0.54058
C         14.77181        18.43304         0.49542
C         15.97981        20.54600         0.81768
C         14.68838        21.27071         1.10556
C         15.98164        23.46267         0.82395
C         14.75361        22.74357         0.74162
C         15.97829        24.88058         0.76943
C         14.78456        25.58758         0.50961
C         16.04110        27.76971         0.53353
C         14.79318        27.04575         0.41031
C         16.03168        29.21182         0.36848
C         14.81379        29.90642         0.14137
C         16.03307        32.05301         0.01023
C         14.81040        31.32915        -0.04810
C         16.02425        33.47845        -0.10884
C         14.82596        34.17602        -0.27963
C         16.07129        36.32415        -0.52909
C         14.82423        35.61998        -0.41555
C         16.06129        37.73960        -0.80616
C         14.82883        38.43123        -0.86761
C         18.51785         3.47181        -0.73268
C         17.26070         4.15534        -0.57026
C         18.49839         6.30653        -0.52047
C         17.27331         5.59303        -0.45876
C         18.50440         7.73868        -0.45427
C         17.27769         8.43289        -0.36066
C         18.53844        10.62353        -0.25037
C         17.25106         9.92077        -0.58324
C         18.52211        12.04522        -0.09219
C         17.29937        12.76129         0.07073
C         18.52269        14.90159         0.09146
C         17.28468        14.17450         0.15969
C         18.51302        16.33097         0.15856
C         17.27349        17.02026         0.27288
C         18.55103        19.15718         0.56499
C         17.27130        18.51670         0.09941
C         18.55709        20.55310         1.01863
C         17.22308        21.30723         1.11561
C         18.47817        23.46289         1.02435
C         17.24014        22.76489         1.00956
C         18.49367        24.89253         0.98378
C         17.19989        25.63707         1.22279
C         18.48979        27.84134         1.09542
C         17.22424        27.08577         0.79869
C         18.50038        29.24411         0.54321
C         17.26753        29.93899         0.37466
C         18.52324        32.05600         0.05787
C         17.27011        31.34991         0.17123
C         18.54895        33.47026        -0.08096
C         17.28827        34.24667         0.19178
C         18.51966        36.31303        -0.58301
C         17.29364        35.63961        -0.38731
C         18.51296        37.72187        -0.87555
C         17.29332        38.41140        -0.96763
C         19.69723         4.16067        -0.77688
C         20.92771         6.32311        -0.73816
C         19.72827         5.59618        -0.67626
C         20.93387         7.71930        -0.63321
C         19.74963         8.45389        -0.48488
C         20.96353        10.63741        -0.20360
C         19.74593         9.91116        -0.31693
C         20.96780        12.01578        -0.12583
C         19.76263        12.75843        -0.08943
C         20.95358        14.95128        -0.13232
C         19.75655        14.20170        -0.03404
C         20.94598        16.33711        -0.06486
C         19.74966        17.05683         0.10817
C         20.98269        19.23981         0.46006
C         19.75313        18.49621         0.35606
C         20.98799        20.60250         0.62481
C         19.78724        21.33669         0.86640
C         20.94831        23.50898         0.93006
C         19.73828        22.74380         0.96570
C         20.93578        24.87188         0.86954
C         19.70330        25.61021         0.87643
C         20.89729        27.74226         0.44629
C         19.72655        27.04386         0.76996
C         20.92243        29.12508         0.29060
C         19.72553        29.89628         0.30260
C         20.94395        32.02139        -0.22591
C         19.74197        31.32035         0.02725
C         20.94776        33.39041        -0.41758
C         19.75549        34.15002        -0.31716
C         20.95345        36.32424        -0.64937
C         19.77005        35.60844        -0.49942
C         20.94504        37.71666        -0.90414
C         19.75942        38.40346        -1.03055
O         12.35637        26.25086        -1.24625
O         17.88317        20.77533         2.32511
O          2.27557         8.85176         1.78404
O         11.73786         5.65384         1.63752
O          6.97929        34.08892         1.65540
O         11.75803         8.27192         1.74476
O         11.13618        11.17079        -1.70426
O          5.65969        31.60872         1.85691
O         11.04879        32.75957        -1.89910
O         10.40205        18.65927        -1.33091
O         10.01480        27.52102        -1.84712
H          9.47595        26.92033        -2.40865
O         10.67141        25.12529         1.77746
H         11.39270        24.75498         2.32837
O          8.26269        32.09988        -1.97867
H          9.11648        32.34191        -2.41306
O          2.54027        30.26179        -1.47556
H          2.52451        29.41263        -1.96447
O          8.50282        15.04749        -1.86285
H          7.68399        15.53743        -2.09307
O          7.34656        25.45644         1.88960
H          8.26837        25.56969         2.20989
O          8.42071         7.67024         1.93399
H          9.26787         7.33354         2.29893
O         17.07422        25.68416         2.69992
H         17.70758        26.38677         3.00168
O         16.02099        11.94993         1.88466
H         15.16492        11.55248         2.15404
O         17.27677        18.73063        -1.37257
H         17.99251        18.17190        -1.74570
O         13.40521        16.10370         2.09817
H         13.42823        17.00114         2.49578
O          0.96224         6.28255        -1.95191
H          0.95209         5.36117        -2.28966
O          2.20537        27.07705         2.12723
H          1.37574        26.60205         2.34717
O          4.11283        10.61161         2.09077
H          3.71656         9.81967         2.53075
O          9.79631        17.18028         1.94258
H          9.83664        16.28764         2.34633
O          2.21826        31.09156         2.06338
H          2.43707        31.91382         2.54932
O          5.83348        10.55976        -1.95685
H          6.73930        10.62255        -2.35216
O         17.12333        10.08504        -2.05655
H         16.30263         9.62227        -2.33139
O         10.82549        27.67438         1.71440
H          9.99642        28.15453         1.92567
O         12.41770        14.41432        -1.92008
H         11.62321        13.98769        -2.30914
O         18.52665        28.00954         2.59905
H         17.89598        28.73011         2.81775
O          9.97240        35.64286         1.63711
H          9.12007        35.28284         1.96880
O          3.52249        20.75211         2.32908
H          4.39400        20.48757         2.69553
O          2.11910        18.41512         2.24780
H          2.35866        19.32281         2.56528
O          8.59064        10.45022        -2.09219
H          9.47481        10.80960        -2.37000
O         10.05309        25.05930        -1.82228
H         10.93938        25.39190        -2.10671
O          6.15173        25.03435        -1.55144
H          5.39640        24.53144        -1.92195
O         17.27497        34.44072         1.66003
H         16.48396        34.98091         1.87302
O         14.51871        21.24182         2.56975
H         15.37506        21.51075         2.96849
O          6.23245         2.11003        -0.34806
H          6.25538         2.19398         0.62709
H          1.30297         2.23749        -0.26305
H         -0.84087         3.40071         0.27858
H         -1.00215         5.86075         0.21825
H         -1.00316         7.89998        -0.30771
H         -1.00506        10.30991         0.00423
H         -1.03238        12.17883         0.45093
H         -1.03502        14.61601         0.37798
H         -0.99069        16.50825        -0.11674
H         -0.92945        18.92404        -0.35908
H         -0.93752        20.80272        -0.41490
H         -0.95952        23.22697        -0.43312
H         -1.00805        25.12208        -0.17072
H         -1.01972        27.54010        -0.22612
H         -1.04300        29.48095        -0.02246
H         -0.98303        31.89943        -0.22824
H         -0.99040        33.80705        -0.05093
H         -0.92308        36.24433        -0.36421
H          0.33674        38.32832        -0.64949
H          3.76210         2.33049        -0.62200
H          2.50121        39.53313        -0.82277
H          6.19717         3.28739        -2.02800
H          4.93913        39.51576        -0.82358
H          8.67820         2.44104        -0.76955
H          7.40453        39.52288        -0.83807
H         11.10350         2.42592        -0.62358
H          9.90915        39.54257        -0.76262
H         13.57788         2.39011        -0.65182
H         12.35578        39.52667        -0.89990
H         16.04043         2.37465        -0.65804
H         14.82916        39.51588        -1.05146
H         18.51222         2.37516        -0.81696
H         17.29618        39.49471        -1.15959
H         20.64906         3.62277        -0.89798
H         21.87918         5.78615        -0.86303
H         21.90259         8.23528        -0.67517
H         21.92531        10.10777        -0.21349
H         21.93512        12.53361        -0.08102
H         21.91637        14.44075        -0.26397
H         21.90479        16.86735        -0.13554
H         21.94230        18.72439         0.32472
H         21.95184        21.12785         0.59187
H         21.91646        22.99220         0.95306
H         21.89395        25.40641         0.85512
H         21.83601        27.19686         0.27878
H         21.88377        29.60438         0.06577
H         21.89940        31.48286        -0.27591
H         21.90380        33.88888        -0.62592
H         21.92587        35.81921        -0.57496
H         21.90294        38.24425        -1.01385
H         19.75614        39.48218        -1.24309
