         429
 CSIRO Nanostructure Databank - Neutral Graphene Oxide Data Set
C          1.39139         2.23891         1.01425
C          1.33112         3.55912         0.55101
C          2.61247         1.59619         1.16158
C          2.50485         4.28923         0.28355
C          1.27254         6.29557        -0.56772
C          1.23854         7.64412        -1.04186
C          2.45039         5.63230        -0.30965
C          2.37037         8.37148        -1.31555
C          1.10218        10.62416        -1.43234
C          1.12931        11.98457        -1.42739
C          2.31862         9.82506        -1.62882
C          2.35834        12.75112        -1.36852
C          1.17617        14.96074        -1.16568
C          1.18963        16.38216        -1.08726
C          2.33222        14.21168        -1.26233
C          2.37945        17.10987        -1.00284
C          2.40292        18.53728        -0.80925
C          3.82079         2.28952         0.89739
C          3.75622         3.66632         0.53477
C          5.06087         1.57079         0.85834
C          5.01649         4.41650         0.42328
C          3.71589         6.27064        -0.72621
C          3.68675         7.70147        -1.26185
C          4.97992         5.88201         0.01862
C          4.93368         8.50506        -1.13571
C          3.64180        10.61307        -1.55391
C          3.56403        12.05675        -1.29350
C          4.89488         9.88088        -1.23127
C          4.79237        12.74333        -0.83481
C          3.63847        14.95537        -1.46912
C          3.63338        16.41069        -1.04716
C          4.81900        14.23869        -0.86413
C          4.83179        17.07988        -0.83251
C          3.58286        19.21054        -0.66605
C          4.84792        18.51681        -0.66217
C          6.24645         2.14607         0.40537
C          6.30428         3.62863         0.29556
C          7.41964         1.38243         0.15127
C          7.40101         4.22922        -0.49124
C          6.23480         6.41125        -0.65762
C          6.20112         7.78963        -0.96559
C          7.44265         5.66732        -0.78430
C          7.42691         8.48423        -1.10968
C          6.10752        10.66413        -1.05798
C          6.07635        12.01448        -0.83739
C          7.39791         9.94883        -1.21980
C          7.27832        12.80190        -0.35739
C          6.10593        14.97869        -0.84816
C          6.10270        16.35608        -0.78848
C          7.38836        14.20438        -0.96554
C          7.33936        17.08323        -0.58730
C          6.05298        19.19441        -0.52141
C          7.31680        18.50912        -0.47101
C          8.53692         1.98376        -0.46585
C          8.30946         3.31929        -0.98520
C          9.82836         1.38953        -0.53298
C         10.12399         4.30289        -1.26479
C          8.66891         6.36226        -1.05445
C          8.66467         7.79784        -1.06886
C          9.97658         5.70006        -1.02114
C          9.89747         8.54679        -0.90497
C          8.67513        10.69668        -0.92893
C          8.60417        12.10429        -0.51106
C          9.89914         9.91980        -0.67934
C          9.73504        12.78777        -0.17255
C          8.58893        14.94992        -0.41224
C          8.56096        16.37771        -0.38386
C          9.74383        14.24458        -0.06238
C          9.76643        17.08938        -0.10848
C          8.52014        19.20733        -0.27246
C          9.75957        18.52763        -0.10798
C         11.07997         2.07809        -0.63078
C         11.17455         3.52220        -0.78436
C         12.28143         1.39125        -0.33629
C         12.36106         4.22100        -0.37174
C         11.15145         6.38439        -0.69203
C         11.22632         7.85482        -0.96648
C         12.36339         5.67744        -0.41476
C         12.35520         8.54244        -0.25544
C         11.06130        10.61172        -0.20686
C         10.94391        12.01906         0.18354
C         12.28059         9.93434         0.01320
C         12.19837        12.78497         0.56211
C         10.97100        14.94689         0.20730
C         10.97675        16.38067         0.13658
C         12.19183        14.25664         0.44532
C         12.19656        17.09567         0.31034
C         10.97609        19.22053         0.06947
C         12.20013        18.53098         0.25481
C         13.50526         2.07088        -0.07062
C         13.49981         3.50609        -0.01948
C         14.72985         1.38637         0.13386
C         14.68412         4.25320         0.54237
C         13.54035         6.39179        -0.14711
C         13.53607         7.81882        -0.02031
C         14.83872         5.63238        -0.08889
C         14.72296         8.50978         0.41775
C         13.47805        10.64793         0.39860
C         13.47210        12.05815         0.52119
C         14.69864         9.92663         0.55541
C         14.67428        12.79423         0.67066
C         13.41415        14.94627         0.58883
C         13.42055        16.39378         0.54254
C         14.64812        14.22474         0.74226
C         14.61745        17.10863         0.70188
C         13.43610        19.22088         0.36641
C         14.64332        18.52871         0.56135
C         15.96896         2.07440         0.32648
C         15.98386         3.49505         0.45131
C         17.20900         1.38565         0.36726
C         17.18489         4.20838         0.61962
C         15.97941         6.38437         0.56069
C         15.90768         7.77336         0.72311
C         17.17441         5.64762         0.78537
C         17.07574         8.50946         1.24286
C         15.91323        10.65655         0.81185
C         15.90603        12.08317         0.80456
C         17.12178         9.97065         1.06174
C         17.12005        12.79676         0.99554
C         15.87479        14.92027         0.95419
C         15.88903        16.42420         1.14896
C         17.07656        14.22181         1.05473
C         17.07262        17.03977         0.35768
C         15.91172        19.22167         0.58647
C         17.12565        18.54668         0.53397
C         18.42925         2.07359         0.53575
C         18.42814         3.50553         0.67593
C         19.67775         1.39260         0.55726
C         19.64322         4.20848         0.90065
C         18.39769         6.31107         1.09709
C         18.37740         7.75741         1.41066
C         19.60969         5.61895         1.12079
C         19.63661         8.52407         1.28449
C         18.35171        10.67011         1.16800
C         18.35424        12.09090         1.12786
C         19.60321         9.94082         1.20869
C         19.60240        12.82004         1.17534
C         18.32127        14.98434         1.42925
C         18.43382        16.30676         0.59960
C         19.61495        14.22342         1.22805
C         19.56675        17.17374         1.17855
C         18.37099        19.22104         0.43142
C         19.60672        18.55711         0.57022
C         20.89159         2.07368         0.73887
C         20.89182         3.50251         0.95725
C         22.13314         1.37707         0.63213
C         22.11252         4.21106         1.11752
C         20.85596         6.33962         1.58506
C         20.84998         7.81550         1.23811
C         22.13205         5.61006         1.23187
C         22.06882         8.50411         1.04137
C         20.82895        10.65844         1.08666
C         20.83408        12.09116         1.09286
C         22.05317         9.94138         0.92992
C         22.06158        12.80312         1.04670
C         20.83939        14.95701         1.15969
C         20.86167        16.39073         1.07263
C         22.07294        14.23656         1.08642
C         22.06560        17.07696         0.89471
C         20.84022        19.19550         0.42497
C         22.07829        18.50901         0.62041
C         23.36363         2.02417         0.76388
C         23.40239         3.44102         1.29301
C         24.58074         1.34848         0.56914
C         24.63938         4.19844         0.86768
C         23.34036         6.35341         1.08703
C         23.29675         7.76003         1.00745
C         24.61279         5.64198         0.87184
C         24.51699         8.47615         0.58431
C         23.24722        10.68386         0.70854
C         23.28030        12.08164         0.86199
C         24.47094         9.95467         0.32626
C         24.55060        12.79171         0.92458
C         23.30928        14.94572         1.03994
C         23.31288        16.36537         0.93179
C         24.55643        14.23415         1.08623
C         24.54225        17.07048         0.80262
C         23.29854        19.17184         0.46986
C         24.54881        18.48884         0.56788
C         25.82758         2.03174         0.57781
C         25.82866         3.48727         0.66565
C         27.04262         1.35079         0.42958
C         27.08747         4.16742         0.53327
C         25.80013         6.34032         0.71650
C         25.85232         7.83971         0.88977
C         27.07948         5.62445         0.67911
C         26.95179         8.51962         0.07150
C         25.73211        10.77170         0.05498
C         25.73752        12.10573         0.73822
C         27.01567         9.99780         0.22951
C         27.01833        12.72587         1.06302
C         25.76737        14.94639         1.10520
C         25.78186        16.36755         0.88090
C         27.02512        14.22226         1.33381
C         26.99756        17.05854         0.67371
C         25.77571        19.15867         0.40429
C         27.01370        18.46573         0.44071
C         28.28703         2.03400         0.29394
C         28.28616         3.48267         0.29631
C         29.50215         1.34671         0.18418
C         29.51726         4.18332        -0.02917
C         28.35092         6.36099         0.26201
C         28.19566         7.76323        -0.23780
C         29.50117         5.58325        -0.18869
C         29.45356         8.53424        -0.47479
C         28.21844        10.67120         0.33545
C         28.28599        12.06575         0.68999
C         29.46242        10.00170        -0.11624
C         29.50287        12.77231         0.75334
C         28.34406        14.98273         1.37662
C         28.26660        16.30497         0.63529
C         29.57919        14.18542         0.96853
C         29.54940        17.04836         0.46209
C         28.25674        19.16442         0.29863
C         29.50787        18.52833         0.35689
C         30.74242         2.03040        -0.01691
C         30.71512         3.44016        -0.25363
C         31.97237         1.33451         0.09067
C         31.96469         4.11222        -0.66391
C         30.67961         6.34108        -0.64243
C         30.71774         7.79181        -0.44865
C         31.99439         5.60705        -0.84893
C         31.97417         8.50202        -0.70525
C         30.79639        10.51002         0.39054
C         30.78188        12.01405         0.71395
C         31.96597        10.01564        -0.49209
C         32.06579        12.78755         0.62551
C         30.79666        14.90448         0.85047
C         30.81330        16.41584         1.03141
C         32.02505        14.25685         0.60761
C         32.04573        17.10916         0.48813
C         30.73342        19.21698         0.31282
C         31.99568        18.53801         0.30676
C         33.23822         1.99259         0.06240
C         33.27027         3.38908        -0.44305
C         34.41375         1.36687         0.42122
C         34.50843         4.18944        -0.25322
C         33.27713         6.34727        -0.64279
C         33.25574         7.76624        -0.63482
C         34.46305         5.62139        -0.38025
C         34.45867         8.52927        -0.38885
C         33.28925        10.77816        -0.49660
C         33.30065        12.10302         0.23132
C         34.47099         9.90158        -0.19914
C         34.47410        12.82824         0.19036
C         33.24712        14.96457         0.39903
C         33.24103        16.42071         0.32710
C         34.44771        14.25935         0.21928
C         34.47182        17.13639         0.10107
C         33.19402        19.23952         0.07464
C         34.44766        18.57139        -0.00218
C         35.72282         2.09406         0.56787
C         35.67573         3.52798         0.09228
C         36.91695         1.33870        -0.00252
C         36.95880         4.24648         0.02456
C         35.69677         6.38703         0.03360
C         35.72423         7.82473        -0.38085
C         36.93980         5.65552        -0.33923
C         36.91785         8.49112        -0.58206
C         35.75226        10.57764         0.03763
C         35.76679        12.09567         0.16819
C         36.98911         9.91982        -0.41268
C         37.01284        12.77795        -0.13280
C         35.68063        14.98174        -0.12314
C         35.69999        16.45163         0.00121
C         36.97712        14.24662        -0.26086
C         36.92289        17.13611        -0.18371
C         35.66193        19.25614        -0.23214
C         36.89804        18.56966        -0.31836
C         38.09785         1.95649        -0.29928
C         38.21768         3.43537        -0.20130
C         39.32100         1.24397        -0.62538
C         39.40867         4.08874        -0.78452
C         38.04018         6.26603        -1.07200
C         38.07662         7.78506        -1.24984
C         39.32379         5.48658        -1.26862
C         39.42607         8.40133        -0.87720
C         38.17720        10.63792        -0.50761
C         38.20341        12.08501        -0.38760
C         39.45114         9.88402        -0.63767
C         39.41519        12.84039        -0.62668
C         38.24437        14.96466         0.13535
C         38.18548        16.44058        -0.20008
C         39.46973        14.23898        -0.39659
C         39.37312        17.13221        -0.33065
C         38.12073        19.24663        -0.55190
C         39.35123        18.55890        -0.56788
C         40.49245         1.90108        -0.86710
C         40.54950         3.34552        -0.99880
C         41.77689         4.02598        -1.39330
C         40.61645         6.21232        -1.57861
C         40.66708         7.72501        -1.40686
C         41.83109         5.36353        -1.60149
C         41.92938         8.48629        -1.19824
C         40.67703        10.61997        -1.08805
C         40.63288        12.15094        -1.10245
C         41.93725         9.82544        -1.04887
C         41.86825        12.93640        -1.15464
C         40.67097        14.95933        -0.49278
C         40.68208        16.41598        -0.04761
C         41.86855        14.27256        -0.86338
C         41.87865        17.19871        -0.50493
C         40.57150        19.23593        -0.81387
C         41.79689        18.53175        -0.81911
O         39.62700         8.91252         0.46898
O          9.13684         3.69925        -2.05227
O         29.35967         9.59374        -1.50038
O         17.55459         8.08440         2.57997
O         28.95399        16.32346        -0.66313
O         11.29547        12.25809         1.60048
O         40.50907         7.12437        -2.72592
O         24.31587         8.98583        -0.77797
O         40.43361        11.31575        -2.34063
O         31.54341        12.24810         1.95408
O          3.06047        10.19510        -2.83409
O          5.93476         4.26957         1.56846
O         36.27745        14.64673        -1.47550
O         38.33907         5.56263        -2.36879
O         35.87751        11.21478         1.35872
O         28.03502         6.17749         1.69382
O         27.16035         7.94240        -1.26086
O          8.19453        10.50317        -2.32172
O         31.22038         6.00977        -2.00321
O         26.98854        13.27402         2.45027
O         32.68384         3.47194        -1.78369
O          4.54581        13.55624         0.41153
O         37.90856         3.93720         1.15472
O          3.84771         6.52738        -2.14341
O         31.74175         9.50021        -1.81233
O         14.40777         4.45921         1.96055
H         14.34089         3.57904         2.38621
O         18.18611        15.19259         2.86507
H         18.88588        15.82898         3.15373
O         28.51972        15.34284         2.78513
H         28.27489        14.54052         3.30440
O         18.93896        15.89448        -0.68740
H         18.15590        15.74363        -1.26889
O         38.31834        14.87146         1.58812
H         39.16684        15.30830         1.85322
O         37.89483         8.08297        -2.65376
H         38.27897         7.32503        -3.15895
O         25.69777        11.09286        -1.37344
H         25.51609        10.24507        -1.84202
O         19.33918        17.44155         2.60140
H         20.00205        18.10686         2.88385
O          4.88247         6.63157         1.26964
H          5.46844         6.17066         1.91436
O         11.62259         7.90927        -2.40871
H         10.84512         7.61559        -2.93195
O         30.98165         9.81217         1.65226
H         31.39853        10.45844         2.27665
O         16.01186        16.72741         2.55307
H         16.73410        16.15538         2.92745
O         16.69324        16.83662        -1.03722
H         17.07409        17.56819        -1.56724
O         33.53159        11.20758        -1.88233
H         33.08419        10.54788        -2.46810
O         26.12868         8.11190         2.28871
H         26.87466         7.52069         2.55371
O          7.62563        14.01950        -2.39457
H          7.59129        14.89813        -2.82742
O         35.63420         6.45954         1.51810
H         36.43427         6.93352         1.83174
O          7.09934        12.94685         1.07845
H          6.16991        13.25763         1.22595
O         40.76321        16.33533         1.44147
H         40.82613        17.25681         1.77434
O         15.22895         5.41069        -1.48043
H         15.15496         6.26410        -1.95693
O          3.88549        14.95532        -2.91527
H          3.12110        15.39121        -3.34760
O         35.99078         2.13780         2.01403
H         36.76119         2.74741         2.13086
O         20.79989         6.29917         3.05793
H         19.96050         6.72767         3.33372
O         23.53634         3.29497         2.75500
H         24.34352         2.76306         2.92226
O         30.84225        16.70152         2.45802
H         30.07390        16.22699         2.86888
H          0.45821         1.69830         1.22522
H          0.34650         4.01982         0.39660
H          2.65275         0.54116         1.46740
H          0.30814         5.83007        -0.32256
H          0.25144         8.12141        -1.11905
H          0.13936        10.10851        -1.30572
H          0.17493        12.52334        -1.34479
H          0.19685        14.46403        -1.10873
H          0.22955        16.91380        -1.02091
H          1.44692        19.08085        -0.78650
H          5.03208         0.48643         1.04477
H          3.58442        20.30261        -0.53411
H          7.45544         0.32793         0.46250
H          6.04617        20.28921        -0.40796
H          9.89081         0.33253        -0.22485
H          8.50295        20.30628        -0.21756
H         12.26149         0.29360        -0.25372
H         10.97720        20.32077         0.05263
H         14.74607         0.28889         0.05618
H         13.44656        20.31786         0.28120
H         17.22039         0.29035         0.26307
H         15.90636        20.32259         0.60459
H         19.69325         0.30268         0.40655
H         18.36722        20.31145         0.27262
H         22.11425         0.30792         0.36957
H         20.86841        20.24858         0.10527
H         24.56711         0.27195         0.33967
H         23.30013        20.24954         0.24752
H         27.03677         0.25130         0.38577
H         25.77521        20.24407         0.22429
H         29.51075         0.24993         0.27028
H         28.22394        20.25884         0.18250
H         31.94582         0.26384         0.34443
H         30.72742        20.31337         0.21184
H         34.38269         0.32258         0.76883
H         33.16153        20.33156        -0.05874
H         36.87359         0.23799         0.00551
H         35.64992        20.35072        -0.34461
H         39.29567         0.14440        -0.62572
H         38.11407        20.33596        -0.70642
H         41.41023         1.32874        -1.06575
H         42.69180         3.42246        -1.48590
H         42.77995         5.83821        -1.88971
H         42.88166         7.93499        -1.21837
H         42.89647        10.35502        -0.94689
H         42.79417        12.44216        -1.47980
H         42.81615        14.82441        -0.92431
H         42.86816        16.72293        -0.46562
H         40.55928        20.31373        -1.02638
H         42.71647        19.07862        -1.07520
