         621
 CSIRO Nanostructure Databank - Neutral Graphene Oxide Data Set
C          5.92389        31.69117        -1.09175
C          5.93430        33.04867        -0.95437
C          8.34596        27.40352        -1.13351
C          8.34384        28.78074        -0.93007
C          7.13676        29.54802        -1.10036
C          8.25375        31.55625        -0.19360
C          7.08944        30.89431        -0.82664
C          8.22205        33.04817         0.10662
C          7.05491        33.81853        -0.45540
C          7.89732        36.12897        -0.03952
C          6.98739        35.18779        -0.64983
C          8.33072        37.35205        -0.46581
C         10.69491        23.06411        -1.13584
C         10.70076        24.44628        -1.18388
C          9.50696        25.23416        -1.17288
C         10.80632        27.34083        -0.93239
C          9.54493        26.63029        -1.08965
C         10.80433        28.75660        -0.68435
C          9.57251        29.47695        -0.61740
C         10.75902        31.56029        -0.06680
C          9.55904        30.86262        -0.30318
C         10.78804        32.97567         0.14172
C          9.56417        33.68651         0.29145
C         10.80627        35.80781         0.53805
C          9.64123        35.02519         0.67692
C         10.70795        37.27918         0.68375
C          9.43722        38.06810         0.21273
C         10.73465        40.21990         0.12584
C          9.57798        39.51459        -0.07174
C         10.80071        41.66715         0.08704
C         13.24252        18.66762        -1.28214
C         13.21877        20.11854        -1.34871
C         11.99335        20.81432        -1.26338
C         13.23897        22.99500        -1.13038
C         11.92976        22.26087        -1.05496
C         13.26010        24.47549        -1.34122
C         11.97490        25.21012        -1.30790
C         13.28192        27.32621        -0.86471
C         12.01857        26.65192        -0.98068
C         13.28085        28.75471        -0.64094
C         12.03486        29.41786        -0.47393
C         13.34726        31.59496        -0.02154
C         12.01173        30.80418        -0.01101
C         13.27921        33.05199        -0.07046
C         12.03210        33.71144         0.15369
C         13.27360        35.87884         0.22608
C         12.02140        35.13795         0.26365
C         13.25349        37.25302         0.41009
C         12.01239        38.01787         0.68297
C         13.25676        40.16069        -0.05477
C         12.00127        39.50511         0.43675
C         13.27172        41.65488        -0.09530
C         11.99353        42.36301         0.13714
C         13.25502        44.43790         0.65521
C         12.07457        43.77800         0.37300
C         13.14750        45.89487         1.05308
C         15.38364        14.27243        -0.42966
C         15.19770        15.71883        -0.41597
C         14.30941        16.46169        -1.13485
C         15.70750        18.59098        -1.53873
C         14.39670        17.92869        -1.22633
C         15.70080        20.12360        -1.80950
C         14.44692        20.81182        -1.51401
C         15.71083        23.03752        -1.87328
C         14.43102        22.26855        -1.64456
C         15.71683        24.53504        -1.65188
C         14.55167        25.12892        -0.87217
C         15.75457        27.33476        -0.92555
C         14.51628        26.63963        -0.94899
C         15.75253        28.79211        -0.86621
C         14.50141        29.48605        -0.67114
C         15.67923        31.66453        -0.85077
C         14.53635        30.90949        -0.53800
C         15.70484        33.07097        -0.62306
C         14.49168        33.76125        -0.26379
C         15.76615        35.83562        -0.04346
C         14.52251        35.17250        -0.03176
C         15.81733        37.24465         0.35746
C         14.51993        37.99116         0.54899
C         15.79362        40.18109         0.36908
C         14.54417        39.43026         0.14078
C         15.78941        41.57072         0.46737
C         14.57703        42.36912         0.18220
C         15.71092        44.37231         1.09733
C         14.53405        43.76506         0.66686
C         15.67130        45.78235         1.54353
C         14.47202        46.58135         1.28168
C         15.76697        48.66934         1.41171
C         14.53129        47.95029         1.34275
C         15.68138        50.16759         1.26321
C         18.19313        10.71027         1.46551
C         18.19015        11.85431         0.70921
C         16.89825        12.22607        -0.01795
C         18.35569        14.81631         0.12756
C         16.43562        13.65411         0.17725
C         18.35322        16.10312        -0.37653
C         17.15840        16.92112        -0.36441
C         18.26632        18.63318        -1.72478
C         17.02652        18.00979        -1.19053
C         18.26633        20.16280        -1.95992
C         16.97880        20.90097        -1.79140
C         18.24637        23.03218        -1.93352
C         16.97511        22.26973        -1.76597
C         18.26130        24.53163        -2.00311
C         17.00138        25.30294        -1.66478
C         18.19032        27.36776        -0.71125
C         16.99260        26.63415        -0.98082
C         18.18343        28.77095        -1.18193
C         16.91745        29.50903        -1.09656
C         18.17245        31.73084        -1.30607
C         16.86443        30.97104        -1.48401
C         18.15978        33.09428        -1.10473
C         16.93375        33.80406        -0.75558
C         18.23225        35.94245        -0.48237
C         16.97345        35.18335        -0.43990
C         18.25151        37.36672        -0.15021
C         17.04606        38.02795         0.14177
C         18.24947        40.09808         0.57726
C         17.02541        39.42046         0.40274
C         18.18104        41.47830         1.10115
C         16.97120        42.27733         0.86265
C         18.23682        44.34665         1.37845
C         16.97152        43.65595         1.12187
C         18.26258        45.81286         1.40250
C         17.01165        46.54431         1.65738
C         18.23872        48.69759         1.27147
C         16.98398        48.00176         1.45113
C         18.23350        50.13626         1.25257
C         17.01337        50.87340         1.33716
C         18.24740        52.99774         1.39035
C         17.02753        52.25756         1.40651
C         18.26392        54.40752         1.40428
C         20.47539         7.70297         4.51221
C         20.53820         8.48378         3.38716
C         19.35135         9.09204         2.86528
C         20.69296        10.65855         1.48616
C         19.40995        10.14289         1.97163
C         20.68574        11.89344         0.70169
C         19.45614        12.51597         0.44607
C         20.74115        14.49981        -0.60891
C         19.41677        13.85567        -0.18245
C         20.76883        15.95419        -0.82899
C         19.56058        16.66751        -0.93353
C         20.77843        18.72198        -1.49590
C         19.55959        18.01306        -1.38050
C         20.74322        20.16518        -1.68364
C         19.55732        20.86193        -1.79065
C         20.75744        23.13344        -1.48872
C         19.48227        22.32994        -1.41238
C         20.78098        24.50229        -1.44296
C         19.62610        25.21262        -2.08505
C         20.69410        27.44942        -0.43410
C         19.41001        26.80845        -0.30033
C         20.72369        28.86800        -0.66879
C         19.49823        29.50998        -1.21073
C         20.73607        31.75112        -1.48374
C         19.45067        30.99570        -1.48227
C         20.72458        33.24311        -1.50532
C         19.38992        33.91452        -1.28725
C         20.68379        36.05761        -1.03374
C         19.40441        35.32305        -0.86066
C         20.72263        37.51856        -0.63313
C         19.46306        38.11312        -0.13336
C         20.73560        40.26997         0.24517
C         19.46690        39.44645         0.31299
C         20.73628        41.42253         1.24815
C         19.45442        42.18564         1.46265
C         20.69107        44.43013         1.85386
C         19.43473        43.65473         1.47746
C         20.71979        45.72426         0.99617
C         19.43454        46.52108         1.19577
C         20.69065        48.68701         0.94841
C         19.44509        47.96726         1.15856
C         20.69004        50.13951         1.00003
C         19.46567        50.85228         1.19663
C         20.71492        52.99286         1.28018
C         19.48103        52.27411         1.29183
C         20.72176        54.41834         1.29746
C         19.47520        55.13398         1.31770
C         20.68000        57.26365         0.98104
C         19.48706        56.54829         1.19192
C         20.66954        58.66352         0.74878
C         22.74693         6.49693         7.29639
C         21.60478         6.63397         6.54408
C         23.01714         7.73354         4.74265
C         21.66663         7.14458         5.17745
C         22.96388         8.80834         3.71741
C         21.85286         8.75068         2.66383
C         23.17084        10.34976         1.12198
C         21.86025        10.01260         1.81287
C         23.20637        11.77533         0.52882
C         21.96280        12.48758         0.31003
C         23.18267        14.53528        -0.40641
C         21.97878        13.79112        -0.25586
C         23.20000        15.90853        -0.68772
C         21.99530        16.65107        -0.93275
C         23.25664        18.79424        -1.10471
C         22.00605        18.05276        -1.19116
C         23.26026        20.19282        -1.20453
C         22.03040        20.90565        -1.59954
C         23.16792        23.05341        -0.70889
C         22.03566        22.39253        -1.45365
C         23.19848        24.55761        -0.84808
C         21.97130        25.24680        -0.97743
C         23.10611        27.08977         0.06504
C         21.89030        26.58868        -0.46045
C         23.07331        29.22417         0.04400
C         21.89243        29.67771        -0.54888
C         23.23614        31.68973        -1.40318
C         21.92665        31.17906        -0.76715
C         23.27213        33.22580        -1.36922
C         22.01813        33.95520        -1.27784
C         23.20734        36.13128        -1.22967
C         21.97330        35.32221        -1.10433
C         23.24746        37.47582        -0.57669
C         22.01863        38.16351        -0.27190
C         23.26100        40.14155         0.53559
C         22.01928        39.45671         0.24597
C         23.26225        41.47760         0.95037
C         22.02252        42.14150         1.43299
C         23.30773        44.37476         1.53826
C         22.02419        43.61947         1.75720
C         23.28338        45.87077         1.34458
C         21.95979        46.56870         1.23495
C         23.14022        48.67819         0.51026
C         21.88904        47.98436         0.81001
C         23.14410        50.18270         0.62068
C         21.89644        50.86714         0.98175
C         23.19044        52.99307         1.14287
C         21.93953        52.27325         1.16825
C         23.17620        54.40929         1.19916
C         21.95868        55.12916         1.23628
C         23.13316        57.23436         0.72266
C         21.95203        56.56013         1.03149
C         23.07443        58.59330         0.17561
C         21.83584        59.36522         0.38437
C         23.10006        61.45150         0.08127
C         21.87334        60.75734         0.19281
C         24.00775         7.00214         6.87854
C         25.36374         8.34666         5.29755
C         24.14747         7.72436         5.69138
C         25.48930         9.07763         4.10451
C         24.25348         9.50521         3.39105
C         25.64226        10.11005         1.53428
C         24.37662        10.05351         2.02999
C         25.72361        11.77322         0.17295
C         24.41710        12.36969         0.11784
C         25.76257        14.48958        -0.38164
C         24.44111        13.76681        -0.35828
C         25.72764        15.97333        -0.26661
C         24.43528        16.68420        -0.48986
C         25.70882        18.79928        -0.83641
C         24.48134        18.11352        -0.83643
C         25.69988        20.22298        -0.94080
C         24.46632        20.93692        -1.02022
C         25.68365        23.07075        -0.70446
C         24.47990        22.35464        -0.90449
C         25.65046        24.48009        -0.46147
C         24.43114        25.21818        -0.54154
C         25.59812        27.37411         0.35046
C         24.38792        26.59723        -0.17571
C         25.60195        28.94914         0.12480
C         24.37866        29.77024        -0.19269
C         25.71195        31.70613        -0.96442
C         24.46071        31.03411        -0.76931
C         25.71066        33.05444        -1.45471
C         24.49663        33.87567        -1.51228
C         25.74858        36.19709        -1.30540
C         24.51477        35.39065        -1.57214
C         25.70276        37.41919        -0.64193
C         24.47519        38.07758        -0.26172
C         25.72826        40.02917         0.61669
C         24.51616        39.41568         0.32662
C         25.80373        41.42711         1.07027
C         24.51905        42.18155         1.24644
C         25.72346        44.35605         0.98459
C         24.55792        43.66436         1.16813
C         25.71719        45.81093         0.84289
C         24.53190        46.51505         0.85000
C         25.77141        48.72889         0.63312
C         24.47200        47.95174         0.50649
C         25.68287        50.09708         1.23726
C         24.40334        50.83774         1.09276
C         25.67393        52.99007         0.91639
C         24.43764        52.31289         1.08219
C         25.70539        54.38562         0.95799
C         24.46200        55.11211         1.24443
C         25.70001        57.29315         0.55948
C         24.43903        56.63042         0.97817
C         25.67721        58.64566         0.25192
C         24.41984        59.36520        -0.00147
C         24.32394        60.81456         0.09602
C         26.75315         9.44233         3.58589
C         28.04596        10.68339         1.85803
C         26.86289        10.05578         2.31611
C         28.11973        11.82215         0.99134
C         26.93717        12.44900         0.38956
C         28.17137        14.59238         0.20408
C         26.99417        13.84380         0.10936
C         28.17169        15.98334        -0.16786
C         27.00364        16.68019        -0.42871
C         28.18245        18.76981        -0.91292
C         26.98898        18.10272        -0.69188
C         28.15307        20.20601        -1.22206
C         26.91551        20.95677        -0.95461
C         28.19836        23.05266        -0.72680
C         26.93376        22.35092        -0.79971
C         28.18927        24.46297        -0.25196
C         26.88368        25.19240        -0.06672
C         28.10311        27.33366        -0.27902
C         26.90918        26.68326        -0.08145
C         28.10513        28.79349        -0.56584
C         26.90388        29.62449        -0.23858
C         28.18689        31.67840        -0.92707
C         26.92826        31.02000        -0.75528
C         28.20732        33.02683        -1.40412
C         26.97715        33.54887        -1.83524
C         28.26600        36.14686        -1.33215
C         27.02818        35.71141        -1.75860
C         28.27083        37.61493        -0.96140
C         27.00492        37.99887        -0.22384
C         28.27633        40.08559         0.53592
C         27.01341        39.33140         0.46819
C         28.25600        41.48999         0.75760
C         27.04769        42.18668         0.87193
C         28.26130        44.39799         1.07710
C         27.01851        43.66661         0.58936
C         28.28112        45.77203         1.08656
C         27.03734        46.48518         0.69195
C         28.27343        48.69231         1.19524
C         27.07065        47.99252         0.71549
C         28.23730        50.11241         1.52333
C         26.93647        50.93909         1.56452
C         28.22464        52.99837         0.85018
C         26.95033        52.18647         0.66113
C         28.15778        54.41497         0.74425
C         26.93448        55.12962         0.77324
C         26.90427        56.53539         0.61461
C         29.32400        12.55138         0.97171
C         30.62140        14.62420         0.58053
C         29.41292        13.92596         0.57382
C         30.67912        16.07783         0.37030
C         29.41611        16.76714        -0.03779
C         30.81511        18.75855        -0.93683
C         29.48271        18.05151        -0.80725
C         30.74368        20.24458        -1.14293
C         29.44821        20.97137        -1.28366
C         30.67621        23.16199        -0.92423
C         29.39633        22.41591        -0.97708
C         30.69092        24.46971        -0.13959
C         29.42741        25.25776        -0.37067
C         30.66359        27.36298        -0.49110
C         29.39174        26.62855        -0.40137
C         30.66969        28.76729        -0.58112
C         29.41092        29.51465        -0.76381
C         30.66293        31.69265        -0.81728
C         29.42227        30.99096        -0.76769
C         30.71869        33.11324        -1.04112
C         29.48472        33.78665        -1.51369
C         30.80090        36.06534        -1.21887
C         29.50011        35.35965        -1.53768
C         30.78131        37.52775        -0.70290
C         29.51615        38.13425        -0.30801
C         30.75544        40.10749         0.50431
C         29.50842        39.40352         0.29207
C         30.69622        41.50339         0.84612
C         29.50774        42.19685         0.89815
C         30.81481        44.43474         1.21248
C         29.50581        43.63691         1.25399
C         30.74937        45.89393         1.08184
C         29.51702        46.55098         1.13653
C         30.73777        48.73781         1.02555
C         29.49112        48.00108         1.16639
C         30.71956        50.12753         0.87607
C         29.56615        50.90221         1.28749
C         29.43677        52.35113         1.01747
C         31.94059        16.83698         0.21492
C         33.23657        18.87384         0.10328
C         32.01012        18.12956        -0.23440
C         33.68717        19.98020        -0.55021
C         31.85757        20.97399        -1.39589
C         33.16855        22.97246        -0.33377
C         31.96433        22.43513        -1.15928
C         33.15234        24.48727        -0.52731
C         31.97776        25.20592        -0.42187
C         33.11396        27.38783        -0.68715
C         31.90988        26.65310        -0.53234
C         33.11672        28.79027        -0.65971
C         31.88613        29.50868        -0.59078
C         33.10995        31.67796        -0.46795
C         31.86256        30.94137        -0.65446
C         33.12885        33.13013        -0.56654
C         31.95530        33.83822        -0.86398
C         33.18463        35.99357        -0.56261
C         32.01431        35.30019        -0.91249
C         33.21285        37.38949        -0.25697
C         32.02313        38.11149        -0.17745
C         33.23543        40.13239         0.62517
C         31.99134        39.45937         0.29485
C         33.15315        41.41132         1.08021
C         31.97936        42.24342         0.82463
C         33.36446        44.52416         0.78527
C         32.07865        43.73321         0.80011
C         33.24399        45.89376         0.78504
C         31.98791        46.61362         0.91492
C         31.95654        48.00050         0.86251
C         34.74058        20.95027        -0.27740
C         35.72993        23.13420        -0.48474
C         34.55223        22.30543        -0.47267
C         35.70977        24.49225        -0.70109
C         34.40345        25.16885        -0.89971
C         35.67349        27.39948        -0.65398
C         34.38232        26.66659        -0.96648
C         35.64219        28.77920        -1.27000
C         34.35682        29.51582        -1.04466
C         35.67352        31.72565        -0.87518
C         34.43810        30.94872        -0.65703
C         35.69769        33.07169        -0.62217
C         34.43129        33.78257        -0.30963
C         35.72810        35.99364        -0.55721
C         34.45558        35.27578        -0.29805
C         35.74022        37.36791        -0.40218
C         34.51390        38.01792         0.11753
C         35.78934        40.26686         0.15155
C         34.56640        39.46904         0.52917
C         35.89623        41.65778         0.10486
C         34.95656        42.59034         0.68202
C         34.61944        43.88730         0.36562
C         36.92537        25.25680        -0.83570
C         38.17056        27.39079        -1.01771
C         36.94713        26.63339        -0.92070
C         38.20315        28.76973        -1.11859
C         36.94050        29.52232        -1.33259
C         38.18820        31.64457        -0.62079
C         36.93695        31.00679        -1.17537
C         38.17139        33.13518        -0.85369
C         36.94641        33.82779        -0.74506
C         38.17078        35.95370        -0.95617
C         36.94811        35.25172        -0.77615
C         38.20452        37.46889        -1.02638
C         36.93515        38.14871        -0.55187
C         36.92210        39.51023        -0.33025
C         39.42233        29.54354        -1.18397
C         40.63264        31.70634        -1.23498
C         39.43599        30.91987        -1.07662
C         40.61097        33.07400        -1.20723
C         39.38254        33.82938        -1.05079
C         39.36059        35.24336        -1.11506
O         29.63549        34.56900        -2.74874
O         23.67345        58.77350        -1.13528
O         34.36031        25.89568        -2.19230
O         12.79741        31.02139         1.20709
O         27.11187        38.04037         1.22376
O         27.28861        47.23485        -0.53814
O         26.45878        29.54601         1.16687
O         19.98324        33.76993        -2.63739
O         12.80230        22.61539         0.18953
O         15.64573        19.13061        -2.88516
O         22.59816         6.42955         4.28612
O         23.22486        10.13288         4.25292
O         28.75611        20.58340        -2.52136
O         13.91255        39.54355        -1.20109
O         25.22333        41.64397         2.42928
O         19.85248        13.83196        -1.58506
O         22.99529        28.17239         0.95220
O         16.06976        25.31793        -2.80910
O         24.96766        16.44637         0.90136
O         23.71761        36.03338        -2.60830
O         34.21550        42.01157         1.74070
O         33.03044        20.32003        -1.74961
O         25.19793        48.44841        -0.66543
O         25.22268        13.93595        -1.61930
O         15.28627        37.57641         1.71007
O          9.71556        37.75767         1.61269
O         26.97755        34.65912        -2.67276
O         14.86158        22.67298        -2.99933
O         20.26665        31.19522        -2.72784
O         17.31816        14.41326         0.98334
O         21.45094        41.25458         2.48916
O         29.09503        50.48362         2.62845
O         22.66021        46.50194         2.52661
O         27.57836        24.57873         1.10224
O         22.31530        21.80675        -2.75613
O         37.04265        30.42505        -2.49802
O         19.81296        26.15148        -2.83355
O         24.55681        56.08715         2.33534
O         28.59317        29.01423        -1.92541
O         34.46549        34.52990         0.97116
O         18.23498        19.20257        -3.05682
O         23.05818        49.55586        -0.68274
O         14.05508        42.20702        -1.19099
O         12.70435        24.92969        -2.58941
O         22.88603        43.94509         2.88672
O         30.93879        37.19096        -2.14399
O         18.63399        41.56610         2.50961
O         29.81958        16.84905         1.36867
O         30.26417        43.93419         2.47625
O         33.90348        31.15298         0.68139
O         18.23422        23.70544        -3.22055
O         20.61995        37.13631        -2.04574
O         31.40577        23.27834        -2.20285
O         30.27818        17.95552        -2.03886
O         12.14743        38.98183         1.79270
O          7.91364        32.07254         1.14649
O         24.76993        50.16300         2.38120
O         16.29513        46.05456         2.83625
O         32.00503        43.00196        -0.48261
O         34.71609        38.40710         1.52736
O         34.77910        29.07682        -2.38848
O          8.46861        35.62271         1.14766
O         25.79767        10.36946         0.15661
O         16.08453        16.45951         0.40084
O         18.95145        28.87821        -2.43541
O         23.27706        31.26216        -2.78225
H         22.44546        31.53860        -3.22712
O         38.47761        37.86775        -2.38677
H         37.76125        37.52185        -2.95785
O         21.82801        31.76943         0.56606
H         22.54291        31.39665         1.12588
O         19.22239        22.29212         0.04642
H         20.04195        21.98901         0.49523
O         26.92999        51.71293        -0.70574
H         26.96116        52.48548        -1.30744
O         17.08209        11.99223        -1.42512
H         17.91072        12.43084        -1.71554
O         30.64411        24.15235         1.29462
H         29.70369        24.14400         1.58603
O         22.11484         7.63068         1.78551
H         22.51905         7.97750         0.95344
O         20.79182        45.28870        -0.38893
H         20.65530        46.06645        -0.97022
O         25.56208        27.19308         1.78394
H         26.11723        27.90550         2.17744
O         38.10533        31.44936         0.82648
H         38.82957        31.96077         1.24433
O         22.79695        22.84173         0.71631
H         23.53715        23.18468         1.26352
O         19.34001        25.62269         0.38019
H         20.22408        25.38396         0.72994
O         14.76457        24.73768         0.50970
H         13.95457        24.92934         1.02764
O         16.63582        30.99505        -2.93519
H         17.38316        30.50861        -3.35137
O         23.25349         9.42416        -0.01053
H         24.14402         9.55657        -0.41872
O         27.06136        43.76038        -0.88209
H         27.11928        44.71135        -1.12371
O         20.69972        40.95053        -1.05308
H         20.68111        40.26571        -1.75647
O         14.76349        50.70824         2.22610
H         15.07081        50.44967         3.11910
O         26.79973        51.47569         2.88128
H         26.69991        50.74125         3.52104
O         32.86248        22.64839         1.04880
H         32.10674        23.20535         1.36653
O         28.20423        38.31465        -2.24970
H         29.02137        38.07489        -2.74581
O         12.34859        46.61240         0.10332
H         12.75181        46.50687        -0.78243
O         20.50780        44.80548         3.22205
H         21.40037        44.82339         3.64502
O         35.66580        27.66530         0.78472
H         35.93604        26.84993         1.25713
H          5.02496        31.18804        -1.47701
H          5.03655        33.61614        -1.24276
H          7.39511        26.89085        -1.34254
H          6.24415        29.04094        -1.49731
H          6.15369        35.58195        -1.25321
H          7.93375        37.79036        -1.39217
H          9.73201        22.53157        -1.12312
H          8.53243        24.72442        -1.19847
H          8.66803        40.05568        -0.37564
H          9.85236        42.22423         0.13152
H         12.27738        18.15314        -1.16304
H         11.05432        20.24124        -1.28883
H         11.13498        44.34847         0.42773
H         12.58166        45.94167         2.02694
H         14.71138        13.67528        -1.06176
H         13.49063        15.96843        -1.67986
H         13.60611        48.52994         1.21004
H         15.23144        50.39078         0.25341
H         17.24772        10.18936         1.68121
H         16.09175        11.52373         0.31944
H         16.07225        52.79904         1.46893
H         17.31076        54.95599         1.43889
H         19.50089         7.55510         5.00465
H         18.37279         8.75719         3.24216
H         18.52943        57.09064         1.18677
H         19.71558        59.20829         0.81611
H         22.67458         6.05843         8.30216
H         20.62215         6.40194         6.98055
H         23.07428        62.55083         0.08635
H         20.93905        61.33242         0.26413
H         24.86570         6.91879         7.56112
H         26.26590         8.15753         5.89950
H         26.62551        59.18692         0.11329
H         25.24720        61.39689         0.23007
H         27.65433         9.27484         4.19437
H         28.96037        10.47520         2.43853
H         29.10000        54.98436         0.72603
H         27.85354        57.05679         0.41981
H         30.22287        12.08447         1.40362
H         31.55889        14.08252         0.77768
H         31.59935        50.64510         0.46612
H         30.36130        52.95121         1.02412
H         32.83821        16.39622         0.67769
H         33.78388        18.52554         0.99205
H         34.15046        46.50492         0.65383
H         32.89592        48.55979         0.73951
H         35.76313        20.58722        -0.07655
H         36.70319        22.62702        -0.38918
H         36.77964        42.07345        -0.40772
H         35.26097        44.45713        -0.32474
H         37.87429        24.70000        -0.88446
H         39.12063        26.83485        -0.97961
H         39.06956        37.84252        -0.41917
H         37.85082        40.07183        -0.51768
H         40.37041        29.00629        -1.34653
H         41.58146        31.18044        -1.42039
H         41.54489        33.63622        -1.35297
H         40.30127        35.79045        -1.27492
