         480
 CSIRO Nanostructure Databank - Neutral Graphene Oxide Data Set
C         38.11884        50.38336         3.68993
C         36.93889        51.07835         3.89449
C         37.96143        53.08657         3.01997
C         36.85922        52.43982         3.55580
C         40.63889        48.93249         3.29455
C         40.50367        50.30191         2.94717
C         39.26354        51.02023         3.14604
C         40.32713        53.06140         2.20165
C         39.18330        52.40303         2.80677
C         40.31184        54.49074         1.96597
C         42.98350        48.90476         2.58471
C         41.81881        48.25325         3.09501
C         42.87421        50.28900         2.25849
C         41.63670        50.96903         2.39135
C         42.56524        52.94282         1.13510
C         41.49418        52.33658         1.94574
C         42.49284        54.47897         0.81801
C         41.35102        55.17433         1.42045
C         45.36103        45.97853         2.16547
C         44.26807        46.75150         2.49732
C         45.46912        48.93978         2.06120
C         44.20264        48.16480         2.37777
C         45.10062        50.14559         1.15108
C         44.11981        51.07433         1.89533
C         44.96986        52.98396         0.53369
C         43.88198        52.32774         1.08728
C         44.90020        54.39267         0.20884
C         43.76501        55.15377         0.50257
C         45.00175        57.27707         0.33318
C         43.86316        56.58882         0.61269
C         47.31844        44.48554         0.42013
C         47.53622        45.80853         0.74879
C         46.58973        46.57189         1.61457
C         47.48186        48.62558         0.43441
C         46.59351        48.06654         1.49381
C         47.38053        50.05711         0.03570
C         46.29202        50.89220         0.58445
C         47.38892        52.95055        -0.18595
C         46.22722        52.24992         0.31544
C         47.39523        54.33747        -0.33585
C         46.11065        55.07107        -0.29340
C         47.48897        57.26299        -0.29587
C         46.15844        56.60850        -0.26919
C         47.57624        58.69936        -0.29868
C         49.38748        44.43076        -0.86303
C         48.20259        43.83520        -0.47826
C         49.80719        45.72879        -0.37185
C         48.71879        46.48262         0.25687
C         49.89751        48.57712        -0.23782
C         48.73935        47.88459         0.18768
C         49.89744        49.96862        -0.46806
C         48.60836        50.70035        -0.52827
C         49.89418        52.92336        -0.61619
C         48.60900        52.20993        -0.57527
C         49.87078        54.33378        -0.59694
C         48.62285        55.04876        -0.54021
C         49.94578        57.16030        -0.43788
C         48.63629        56.48618        -0.47863
C         50.03568        58.65956        -0.29585
C         48.75987        59.37583        -0.38173
C         52.64143        41.42850        -2.42032
C         51.41831        42.05079        -2.35207
C         52.41452        44.13212        -1.44603
C         51.31293        43.37338        -1.86520
C         52.27018        45.67333        -1.31744
C         51.07345        46.29859        -0.53001
C         52.39781        48.56308        -0.46500
C         51.14574        47.76947        -0.24538
C         52.33848        50.02263        -0.74452
C         51.10234        50.71334        -0.71311
C         52.33973        52.85020        -0.90555
C         51.10746        52.16313        -0.77631
C         52.40215        54.31558        -0.57510
C         51.11186        55.06120        -0.79795
C         52.32156        57.14857        -1.49794
C         51.13389        56.42363        -0.89304
C         52.33500        58.64419        -1.27106
C         51.31921        59.32666        -0.67432
C         52.64360        61.37703        -0.54565
C         51.53628        60.69354        -0.20682
C         55.18420        40.01886        -2.36525
C         55.08496        41.43641        -2.07160
C         53.80463        42.11356        -1.99707
C         54.90216        44.13446        -1.12892
C         53.69277        43.47434        -1.54981
C         54.82884        45.46120        -0.57983
C         53.65194        46.34180        -0.92833
C         54.82939        48.69153        -0.27048
C         53.68375        47.83444        -0.70357
C         54.79793        50.05996        -0.66345
C         53.55316        50.73067        -0.91504
C         54.80953        52.88691        -1.10799
C         53.56162        52.15789        -1.02090
C         54.81795        54.34316        -1.18828
C         53.64520        55.04577        -1.02696
C         54.88379        57.25266        -1.36914
C         53.63339        56.55268        -0.89092
C         54.87652        58.66455        -1.50161
C         53.55451        59.34851        -1.85953
C         54.89631        61.55088        -1.63063
C         53.51878        60.90693        -1.68553
C         54.92797        62.94905        -1.64171
C         57.65763        40.02859        -2.30296
C         56.36181        39.33977        -2.39095
C         57.57552        41.49979        -1.88604
C         56.24534        42.12093        -1.70510
C         57.33811        44.05563        -0.67111
C         56.14467        43.43928        -1.16187
C         57.22668        45.26887         0.04957
C         55.94097        45.89712         0.13816
C         57.19987        48.90693         0.28499
C         55.96588        48.20834         0.35143
C         57.21180        50.15509        -0.34507
C         56.00251        50.80165        -0.67711
C         57.29339        52.89116        -1.07716
C         56.02080        52.19739        -1.01531
C         57.28084        54.31232        -1.29090
C         56.09448        55.03766        -1.31748
C         57.31537        57.17164        -1.56992
C         56.10950        56.49488        -1.44157
C         57.32841        58.60411        -2.03359
C         56.08374        59.38170        -1.67519
C         57.35242        61.55701        -1.73738
C         56.11716        60.82375        -1.69454
C         57.35836        62.95965        -1.63815
C         56.13263        63.64618        -1.62130
C         60.21133        37.23920        -2.13856
C         59.01779        37.92545        -2.31614
C         60.06935        39.98101        -1.53584
C         58.92440        39.29679        -2.02766
C         59.97911        41.38057        -1.15485
C         58.75500        42.07626        -1.22595
C         59.76579        44.12627        -0.34151
C         58.61760        43.41197        -0.71806
C         59.68707        45.48132         0.05593
C         58.42325        45.93936         0.44236
C         59.66608        48.69765         0.14520
C         58.45549        48.24812         0.57801
C         59.74021        49.97770        -0.60713
C         58.48093        50.75799        -0.76962
C         59.77841        52.89403        -0.76755
C         58.50976        52.21578        -0.94482
C         59.79876        54.29745        -0.86310
C         58.59670        54.96637        -1.40732
C         59.73829        57.17344        -0.90893
C         58.60163        56.45515        -1.55074
C         59.74234        58.66993        -0.98847
C         58.65366        59.34391        -1.77432
C         59.86452        61.51360        -1.22571
C         58.65616        60.84110        -1.75853
C         59.85376        63.01471        -1.07725
C         58.67033        63.72098        -1.78601
C         59.83585        65.78217        -1.04513
C         58.66550        65.13577        -1.23342
C         62.76709        35.82980        -1.75820
C         62.57757        37.14036        -1.36974
C         61.35520        37.88624        -1.62862
C         62.46012        39.95607        -0.77819
C         61.28774        39.27116        -1.30850
C         62.36993        41.36573        -0.47977
C         61.14311        42.02321        -0.62482
C         62.26944        44.18124        -0.00163
C         61.01085        43.37584         0.00862
C         62.27555        45.67864        -0.23754
C         60.88985        46.35249        -0.14199
C         62.16524        48.58524         0.15551
C         60.88093        47.85018        -0.03996
C         62.18754        49.99541         0.03947
C         61.08299        50.69960        -0.71652
C         62.12418        52.89705        -0.03546
C         60.97359        52.18761        -0.42566
C         62.11709        54.32980        -0.03176
C         60.96993        55.03019        -0.52031
C         62.09668        57.19716        -0.13788
C         60.97460        56.45873        -0.55870
C         62.10858        58.65191        -0.24805
C         61.01776        59.36940        -0.72133
C         62.11594        61.59843        -0.25585
C         60.98406        60.82353        -0.83949
C         62.34293        62.99520        -0.70047
C         61.20735        63.63849        -1.52397
C         62.21802        65.91425        -1.70723
C         61.11180        65.17106        -1.38974
C         62.60323        67.27271        -1.35657
C         65.11449        35.76894        -1.03306
C         64.03259        35.18306        -1.64323
C         64.92622        37.03659        -0.32427
C         63.62534        37.79733        -0.57288
C         64.82923        39.95843        -0.00414
C         63.63295        39.26886        -0.45932
C         64.76076        41.40379         0.18617
C         63.53487        42.07114         0.01199
C         64.67616        44.26945         0.45322
C         63.46400        43.51532         0.17313
C         64.61926        45.67120         0.61042
C         63.27809        46.37155         0.69860
C         64.53374        48.59841         0.64246
C         63.33655        47.87611         0.47274
C         64.52361        50.01181         0.72579
C         63.33284        50.72437         0.41536
C         64.38278        52.90067         0.94500
C         63.31197        52.19112         0.42174
C         64.37559        54.34773         1.01825
C         63.23221        55.07246         0.47292
C         64.26852        57.25045         1.10251
C         63.20824        56.48409         0.42415
C         64.45204        58.67685         0.81179
C         63.43452        59.36522        -0.07948
C         64.53187        61.55213         0.57800
C         63.28270        60.82822         0.28415
C         64.63132        62.88012         0.28591
C         63.60727        63.52664        -0.53515
C         65.07370        65.53559        -0.85455
C         64.03462        64.74222        -1.20378
C         65.18474        66.91603        -1.48932
C         63.88629        67.69976        -1.22484
C         67.82430        33.16242        -1.33679
C         66.60442        33.75065        -1.33486
C         67.62805        35.84377        -0.47885
C         66.50920        35.25092        -1.30725
C         67.46734        37.15189         0.17273
C         66.11179        37.81376         0.16777
C         67.21097        39.98780         0.86180
C         66.02589        39.28476         0.23203
C         67.21440        41.48690         0.62498
C         65.95632        42.14541         0.49747
C         67.09228        44.30876         0.90675
C         65.91216        43.57620         0.58370
C         67.01883        45.71815         1.01772
C         65.80208        46.39802         0.81136
C         67.08312        48.65746         0.92652
C         65.81327        47.87123         0.67474
C         66.93951        50.10541         1.21226
C         65.72505        50.73686         1.11792
C         66.71412        52.94572         1.91489
C         65.47578        52.13462         1.66593
C         66.67959        54.33147         1.96898
C         65.47583        55.02998         1.55568
C         66.72038        57.23721         1.89175
C         65.45850        56.49393         1.70698
C         66.73988        58.63090         1.77202
C         65.57631        59.33793         1.25757
C         66.95142        61.48428         1.11437
C         65.58374        60.84958         1.40268
C         66.94164        62.98100         1.46920
C         65.78679        63.69461         0.76410
C         67.35355        65.66429         0.19322
C         66.00678        65.06362         0.18830
C         67.50073        66.97648        -0.35743
C         66.41550        67.65229        -0.99597
C         67.69184        69.74269        -1.03821
C         66.56859        69.02310        -1.34002
C         70.47198        32.08246        -1.98139
C         70.32193        33.36094        -1.37290
C         69.03085        33.93343        -1.14744
C         70.09332        35.95201        -0.17419
C         68.90682        35.25961        -0.60758
C         69.95491        37.21807         0.65682
C         68.67562        37.98981         0.40142
C         69.76204        40.13525         1.11524
C         68.56492        39.31127         0.67101
C         69.71101        41.49905         0.37563
C         68.40612        42.22217         0.68333
C         69.54877        44.36551         1.21273
C         68.37294        43.63525         0.93221
C         69.48291        45.69577         1.80069
C         68.14333        46.46811         1.59453
C         69.33040        48.57361         2.05185
C         68.23020        47.92370         1.52070
C         69.48760        50.07666         1.88864
C         68.17779        50.83970         1.58182
C         69.03644        52.87316         2.92607
C         68.01076        52.24830         2.04693
C         68.96652        54.38840         3.02781
C         67.84146        55.10056         2.38810
C         69.08438        57.22590         2.68416
C         67.88991        56.49555         2.29463
C         69.11835        58.64796         2.53531
C         67.97392        59.36628         2.03638
C         69.29358        61.46308         2.01663
C         68.08226        60.74882         1.79260
C         69.42531        62.86449         1.65122
C         68.30222        63.60533         1.20939
C         69.74737        65.55997         0.74723
C         68.44406        64.94847         0.75319
C         69.90275        66.88121         0.22801
C         68.75817        67.63340        -0.19499
C         70.10608        69.10892        -1.34332
C         68.91056        69.12188        -0.42997
C         69.94822        69.22311        -2.72588
C         72.87799        32.28237        -1.88681
C         71.72376        31.55296        -2.23075
C         72.76237        33.53037        -1.29508
C         71.49520        34.09858        -1.02034
C         72.52804        36.13500         0.03174
C         71.35292        35.39011        -0.37741
C         72.45097        37.42129         0.46681
C         71.18427        38.09434         0.63729
C         72.27628        40.27626         0.94994
C         71.09246        39.44406         0.88311
C         72.23275        41.62078         0.82097
C         70.97372        42.34353         0.56622
C         72.04787        44.54558         1.48238
C         70.88394        43.81450         0.93667
C         71.94927        45.79906         1.99245
C         70.68918        46.50276         2.05442
C         71.66746        48.63771         2.90552
C         70.55905        47.85807         2.36463
C         71.53810        49.92542         3.29082
C         70.23000        50.65934         3.12820
C         71.39457        52.91947         3.53870
C         70.31589        52.17519         3.13861
C         71.35924        54.34956         3.58486
C         70.23090        55.09143         3.28992
C         71.37501        57.28467         3.53781
C         70.23072        56.53889         3.16591
C         71.41838        58.65185         3.37563
C         70.31511        59.36207         2.83941
C         71.63631        61.47463         2.72687
C         70.41471        60.77304         2.55471
C         71.78017        62.78427         2.31279
C         70.70229        63.50047         1.74306
C         72.12653        65.50886         1.28176
C         70.87189        64.86019         1.26862
C         72.29208        66.76197         0.68826
C         71.21139        67.41309         0.09438
C         72.51105        68.50624        -1.75685
C         71.42160        68.69208        -0.73471
C         72.30674        68.68840        -3.08842
C         71.02370        69.05968        -3.59454
O         58.34466        47.04825         1.28449
O         47.35272        47.43929         2.57368
O         71.08426        43.36572        -0.47414
O         62.21362        61.25430         1.19320
O         66.71907        48.27042        -0.43255
O         53.53102        59.09082        -3.25833
O         70.28399        50.01739         0.75037
O         68.50530        45.86753         2.87833
O         57.83102        41.10023        -3.28267
O         50.17637        57.80421         0.89161
O         59.05200        49.95435        -1.90829
O         51.98366        48.19187         0.91171
O         63.87203        37.06824         0.68556
O         53.99123        47.28796        -2.03086
O         45.86914        55.86771        -1.49964
O         59.20530        57.99847         0.20277
O         60.71902        47.17873        -1.36257
O         55.87379        46.98486         1.01139
O         64.35019        56.96761         2.54559
O         58.88658        55.62582        -2.71272
O         48.38231        51.37919        -1.79961
O         50.01084        43.82878        -1.93585
O         42.10860        53.46538        -0.14948
O         68.49364        53.50467         4.12224
O         63.25926        65.15512        -2.30944
O         68.48229        51.95761         0.67407
O         65.37080        64.88749         1.52579
O         66.61946        37.17798         1.41077
O         59.05937        60.06570        -2.96921
O         46.81231        48.96677        -0.83505
O         64.92527        51.87222         3.01780
H         64.80517        52.73982         3.46106
O         67.17625        61.42241        -0.31729
H         67.24723        60.48091        -0.58068
O         44.65833        51.60598         3.13379
H         45.03974        50.85865         3.65485
O         61.44523        63.26943        -2.90454
H         62.24753        63.76564        -3.19358
O         65.34105        66.79139        -2.92595
H         64.57500        66.26272        -3.24768
O         58.86297        63.79356        -3.21640
H         59.81768        63.64823        -3.42764
O         62.77613        46.17426         2.05046
H         63.43510        46.52864         2.68345
O         71.88074        69.70774         0.20035
H         71.09876        69.95289         0.75242
O         59.67723        63.28756         0.33535
H         60.33258        62.76474         0.84630
O         61.50908        50.63549        -2.10689
H         60.69654        50.46062        -2.64129
O         53.53907        56.84992         0.54740
H         54.40712        56.64621         0.95649
O         65.25421        61.06926         2.79377
H         64.35398        60.71583         2.95379
O         60.78244        43.07480         1.45712
H         61.55716        42.55834         1.77054
O         51.94237        46.07069        -2.67047
H         52.63331        46.71247        -2.97279
O         52.28309        56.85553        -2.89911
H         52.77336        57.61103        -3.35413
O         66.75713        63.12392         2.89133
H         66.27633        63.97082         3.03363
O         64.04076        59.40756        -1.41802
H         64.04396        58.49686        -1.78160
O         69.65246        40.39499         2.53325
H         68.70414        40.26350         2.79136
O         69.35996        50.32433         4.25201
H         69.70362        50.77122         5.05400
O         44.35122        49.61636         0.03287
H         45.00317        49.28543        -0.63425
O         69.65552        41.17713        -1.03803
H         69.93533        41.98558        -1.52466
O         69.81598        36.73999         2.03910
H         70.64416        36.26787         2.26878
O         66.79777        35.72195        -2.68901
H         67.64180        35.30282        -2.96502
O         52.90003        61.44478        -2.87745
H         53.00368        60.70387        -3.54297
O         57.19730        58.47162        -3.48712
H         57.63246        59.26519        -3.88328
O         69.23944        69.81924         0.81481
H         68.47747        69.72183         1.42353
O         62.78271        45.81596        -1.58053
H         62.20400        46.47183        -2.04495
O         52.50953        54.32319         0.90642
H         52.58191        55.27522         1.16743
O         45.99434        49.42814         3.32763
H         46.53570        48.68806         3.69854
O         66.97796        39.84205         2.32178
H         66.82573        38.87281         2.46406
H         38.15472        49.31898         3.95724
H         36.06430        50.56518         4.31748
H         37.86581        54.14609         2.74890
H         35.92070        52.99000         3.70995
H         39.78922        48.38586         3.72412
H         39.46331        55.07290         2.35013
H         41.86190        47.19292         3.37601
H         41.32115        56.27281         1.41703
H         45.29005        44.88625         2.26271
H         43.37069        46.21207         2.83317
H         45.06198        58.34806         0.57230
H         43.00307        57.14253         1.01314
H         46.41989        43.95793         0.76655
H         46.63873        59.27263        -0.33523
H         47.93193        42.85964        -0.90159
H         48.76396        60.46178        -0.55448
H         52.70056        40.40913        -2.81964
H         50.50601        41.54421        -2.69219
H         52.82671        62.37655        -0.12221
H         50.82381        61.10253         0.52527
H         54.26018        39.43375        -2.46638
H         53.98107        63.50515        -1.66944
H         56.34240        38.24305        -2.46687
H         56.11061        64.74390        -1.61569
H         60.24713        36.17053        -2.38664
H         58.14705        37.38591        -2.71257
H         59.84415        66.83352        -0.71768
H         57.72295        65.66085        -1.02498
H         61.97785        35.29405        -2.30294
H         61.79406        67.96738        -1.07973
H         64.15505        34.22721        -2.17195
H         64.01534        68.73973        -0.88271
H         67.89648        32.07023        -1.43616
H         65.69689        33.14077        -1.44132
H         67.71946        70.82563        -1.22704
H         65.73196        69.53486        -1.83838
H         69.58266        31.50827        -2.27395
H         68.95895        69.49752        -3.12484
H         73.87234        31.86223        -2.09125
H         71.82041        30.56641        -2.70458
H         73.68115        34.07686        -1.04529
H         73.51896        35.67339        -0.06441
H         73.38488        37.95801         0.68265
H         73.25840        39.79957         1.07704
H         73.16845        42.19586         0.83557
H         73.04000        44.08401         1.39256
H         72.86508        46.31091         2.31931
H         72.63106        48.13147         3.06406
H         72.39635        50.43557         3.75384
H         72.35469        52.43371         3.76347
H         72.30676        54.85847         3.80824
H         72.25108        56.77340         3.95706
H         72.33301        59.18334         3.66652
H         72.50930        60.97006         3.15977
H         72.75860        63.26637         2.43645
H         73.01146        65.00390         1.69006
H         73.29432        67.20945         0.63737
H         73.50534        68.21831        -1.38481
H         73.13772        68.55586        -3.79641
H         70.89387        69.23028        -4.67159
