         349
 CSIRO Nanostructure Databank - Neutral Graphene Oxide Data Set
C          1.18919         1.65801         0.44789
C          0.97189         2.98284         0.96562
C          2.32956         1.22773        -0.17466
C          1.58526         4.08026         0.41386
C          1.39781         6.10445         2.00868
C          1.71248         7.47441         2.23971
C          1.69681         5.45099         0.83167
C          2.63438         8.28774         1.57643
C          1.48079        11.41630         1.39505
C          1.42760        12.65951         0.79045
C          2.66758        10.63302         1.27316
C          2.49085        13.14458         0.00103
C          1.40082        15.35811        -0.18659
C          1.48172        16.72214        -0.34562
C          2.54041        14.52389        -0.37605
C          2.70578        17.33243        -0.71147
C          2.79767        18.76406        -0.75009
C          3.56323         1.99473        -0.29078
C          3.54958         3.41003        -0.39880
C          4.79554         1.33377        -0.22576
C          4.69620         4.22358        -0.16282
C          3.59958         6.54427         0.16234
C          3.67033         7.88513         0.66287
C          4.71234         5.69923         0.02455
C          4.89205         8.61106         0.45725
C          3.71046        10.95135         0.44363
C          3.56734        12.18316        -0.46324
C          5.00494        10.15364         0.53125
C          4.89205        12.89393        -0.69563
C          3.75570        15.12164        -0.86202
C          3.83581        16.52842        -1.01399
C          4.93918        14.28358        -0.99542
C          5.04551        17.19661        -1.58812
C          3.98761        19.38840        -0.97892
C          5.19201        18.67688        -1.33783
C          5.98725         2.07815        -0.10453
C          5.90951         3.50001         0.02482
C          7.24261         1.37755        -0.12891
C          7.14833         4.20299         0.38914
C          5.98952         6.38820         0.15507
C          6.02573         7.84202         0.18824
C          7.18811         5.66270         0.23690
C          7.36617         8.54701         0.19611
C          5.95632        10.61897        -0.58848
C          6.07291        12.13655        -0.69101
C          7.28981         9.89078        -0.51518
C          7.31578        12.78571        -0.88230
C          6.17609        14.86952        -1.37486
C          6.23165        16.25828        -1.89053
C          7.37622        14.14807        -1.22558
C          7.57494        16.82519        -2.10434
C          6.35797        19.42412        -1.27870
C          7.65640        18.95978        -1.69006
C          8.47384         2.00786         0.01753
C          8.45859         3.44037         0.39422
C          9.71507         1.32903        -0.14040
C          9.73031         4.18946         0.30805
C          8.48930         6.28078        -0.06856
C          8.53356         7.73992        -0.34367
C          9.76325         5.55399         0.14883
C          9.89302         8.44958        -0.48905
C          8.60616        10.60477        -0.58954
C          8.57231        12.08116        -0.53525
C          9.83400         9.92116        -0.16128
C          9.91321        12.77086        -0.58616
C          8.70204        14.73398        -1.68225
C          8.75227        16.24516        -1.70175
C          9.95519        14.13811        -1.11268
C         10.02092        16.95325        -1.62297
C          8.89217        19.21372        -1.15862
C         10.07063        18.39342        -1.42368
C         10.95874         1.95603         0.08041
C         10.95460         3.38424         0.47882
C         12.19989         1.28938         0.00261
C         12.26719         4.13421         0.44989
C         11.00906         6.30734         0.25366
C         11.05462         7.72804         0.15650
C         12.23082         5.61808         0.42997
C         12.24966         8.43043         0.36611
C         11.04605        10.62466        -0.10417
C         11.12821        11.96940        -0.50542
C         12.29600         9.94925         0.39785
C         12.37049        12.44137        -1.21730
C         11.15592        14.75967        -1.34880
C         11.22382        16.20251        -1.53421
C         12.40595        13.95563        -1.42643
C         12.50590        16.84905        -1.40643
C         11.31174        19.00767        -1.27759
C         12.53468        18.28764        -1.32263
C         13.45401         1.97747         0.01105
C         13.45032         3.39306         0.01455
C         14.71721         1.27971        -0.04749
C         14.68203         4.13490        -0.20476
C         13.43067         6.31445         0.63937
C         13.45222         7.74280         0.69302
C         14.67798         5.56084         0.38010
C         14.67756         8.51285         0.81456
C         13.57403        10.56299        -0.15314
C         13.65192        11.83289        -0.65135
C         14.79522         9.77451         0.06130
C         14.94263        12.53214        -0.79498
C         13.72196        14.65847        -1.41129
C         13.72548        16.13534        -1.30672
C         14.94854        13.89122        -1.08122
C         14.97397        16.80907        -1.21136
C         13.76301        18.95832        -1.21619
C         14.97982        18.25184        -1.17420
C         15.95470         1.93124        -0.06308
C         15.98698         3.40414        -0.23912
C         17.21297         1.27264         0.00216
C         17.24986         4.17525         0.03431
C         15.91014         5.94276         1.03543
C         15.84931         8.02818         1.38943
C         17.14765         5.53822         0.62389
C         17.15890         8.54831         1.23012
C         16.14951        10.44329        -0.03504
C         16.19232        11.87418        -0.40541
C         17.32435         9.83220         0.63490
C         17.42405        12.51634        -0.39205
C         16.21564        14.61576        -1.25569
C         16.21191        16.09959        -1.17750
C         17.50964        13.86491        -0.98527
C         17.43097        16.79706        -1.01605
C         16.21316        18.93744        -1.09266
C         17.41557        18.23960        -0.99497
C         18.43290         1.97094         0.14522
C         18.42499         3.40624         0.61168
C         19.67554         1.34918         0.01483
C         19.71572         4.16496         0.40810
C         18.36555         6.21158         1.13046
C         18.34268         7.70825         1.52426
C         19.63421         5.68512         0.46959
C         19.65054         8.46901         1.78304
C         18.54683        10.52673         0.67501
C         18.63492        11.89007         0.17283
C         19.71722         9.90167         1.26226
C         19.84014        12.57501         0.27490
C         18.77076        14.65604        -0.83445
C         18.68515        16.12593        -0.80741
C         19.98313        13.96372        -0.23448
C         19.85178        16.85729        -0.51303
C         18.65274        18.94936        -0.88406
C         19.83494        18.29761        -0.64882
C         20.91277         2.05766        -0.06931
C         20.88904         3.54415         0.04485
C         22.05747         1.24969        -0.18985
C         22.09735         4.37040         0.01391
C         20.89840         6.40349         0.89554
C         20.89147         7.70454         1.30660
C         22.15056         5.71897         0.56521
C         22.16494         8.52043         1.14163
C         20.90318        10.57516         1.41525
C         21.12283        11.93112         0.78531
C         22.11847         9.80952         1.97406
C         21.95624        12.84113         1.75199
C         21.02482        14.83671         0.33762
C         20.99532        16.20561         0.08084
C         22.00357        14.28494         1.24637
C         22.01160        17.15659         0.70099
C         21.08974        19.13749        -0.53857
C         22.33598        18.28214        -0.27663
C         23.32062         1.72782        -0.65732
C         23.28151         3.89580        -0.53246
C         24.60772         1.32973        -0.41101
C         24.57999         4.36782        -0.21055
C         23.36856         6.34984         0.71768
C         23.42552         7.70411         1.31497
C         24.66910         5.58878         0.67054
C         24.74590         8.41376         1.43830
C         23.43161        10.62640         1.98834
C         23.37489        12.12920         1.95147
C         24.82856         9.89756         1.86609
C         24.68699        12.81108         1.70992
C         22.94664        15.15312         1.75626
C         23.24581        16.45267         1.22034
C         24.81845        14.13962         2.08229
C         24.50099        17.05852         1.24230
C         23.48715        19.09756         0.22839
C         24.55679        18.47867         0.84877
C         25.75700         2.18606        -0.74078
C         25.73522         3.64324        -0.50731
C         26.93621         1.55875        -1.03193
C         26.98047         4.39800        -0.56590
C         25.86968         6.45884         0.35533
C         25.92825         7.76719         0.79309
C         26.99439         5.80155        -0.27373
C         27.22676         8.54439         0.71894
C         25.88004        10.69301         1.10057
C         25.86598        12.11269         1.23828
C         27.04052        10.06022         0.61651
C         27.08728        12.83750         1.15765
C         25.89801        14.98903         1.71313
C         25.78279        16.37983         1.48980
C         27.21278        14.25893         1.68798
C         27.00367        17.12249         1.31802
C         25.74540        19.22136         1.07583
C         26.97594        18.56098         1.25228
C         28.23769         2.27286        -1.19926
C         28.10384         3.77309        -1.15976
C         29.03594         1.79236        -2.38741
C         29.17392         4.54156        -1.67644
C         28.14988         6.59730        -0.58944
C         28.20736         7.94269        -0.26922
C         29.29852         5.94764        -1.26563
C         29.35164         8.75676        -0.73509
C         28.19214        10.83875         0.32979
C         28.27949        12.17166         0.82216
C         29.31444        10.25283        -0.46607
C         29.55900        12.88359         0.99989
C         28.31976        15.06096         1.07295
C         28.27181        16.45681         1.15391
C         29.55179        14.34803         0.74753
C         29.49838        17.23376         1.10242
C         28.17803        19.29981         1.26895
C         29.43604        18.65746         1.23949
C         29.94163         2.59922        -2.98531
C         30.09063         3.98620        -2.59252
C         31.00695         4.83344        -3.29882
C         30.34872         6.80666        -1.97233
C         30.18740         8.27565        -1.86347
C         31.07908         6.17912        -3.07765
C         30.92241         9.15914        -2.60801
C         29.95415        11.09878        -1.49775
C         30.71226        12.32011         1.51946
C         30.77363        10.57521        -2.46940
C         31.94254        13.07567         1.65135
C         30.85938        15.14144         0.85317
C         30.77061        16.60610         1.07524
C         32.03184        14.38888         1.33113
C         31.93468        17.38110         1.19266
C         30.63551        19.41394         1.32504
C         31.86532        18.77747         1.31087
O         15.63150         9.61595        -1.14618
O          2.29143         6.20483        -0.19924
O          9.12746        12.63478         0.69747
O         14.72235         5.29427        -1.07117
O         15.74936         6.82668         2.11309
O         30.60355         6.21073        -0.64994
O         24.14836         7.67134         2.59241
O         16.99927        14.00918        -2.34911
O         30.29852        14.76550        -0.45469
O         13.10256        14.23731        -2.70165
O          8.29914         6.88529        -1.48291
O         23.75802        14.70516         2.80611
O         18.28338         6.62039         2.51481
O          2.76352         9.55160         2.17451
O         16.88859         3.87574        -1.32811
O          5.28946        16.65867        -2.92971
O          2.29990         3.91477        -0.80617
O          7.75304         3.71125         1.66276
O         11.69170         3.62028         1.72034
O          7.60434        18.04908        -2.76738
O          7.98013         9.97447        -1.78648
O         19.83792        14.11771        -1.68742
O         23.41379        11.43132         3.23580
O         30.18722         9.37259         0.32851
O         23.19678         2.87466        -1.47684
O          8.75416        14.33806        -3.10693
H          9.55198        14.74872        -3.50496
O          5.62484        10.49449         1.80722
H          4.95150        10.32784         2.50376
O         22.18522         8.93332        -0.26525
H         21.92295         8.16076        -0.81233
O         12.35301        10.30000         1.82773
H         11.53575         9.96366         2.25395
O         19.68071         8.58764         3.22374
H         19.46988         7.70015         3.59152
O         24.89067         5.06786         2.02432
H         24.80514         5.84537         2.62967
O         21.30352        12.86763         3.02584
H         21.85178        12.33356         3.64979
O          3.11134        11.71146        -1.77469
H          3.78905        11.06063        -2.08929
O         12.24083        11.84687        -2.54306
H         12.77605        12.40793        -3.15388
O         18.16180         3.37154         2.05101
H         18.91003         2.90995         2.48450
O         20.93877        20.11930         0.49401
H         20.91075        19.62975         1.34753
O         21.94631         9.38222         3.32766
H         22.11092        10.15457         3.91110
O         27.61903        14.09272         3.10757
H         26.90823        13.58226         3.55424
O         10.23599         8.43878        -1.90403
H          9.60352         7.82641        -2.35277
O          5.34857        10.16088        -1.82861
H          6.05540        10.17580        -2.51436
O         22.00275        11.74495        -0.36335
H         21.73573        10.91773        -0.82466
O         29.57886        12.39625        -1.53127
H         30.06231        12.88160        -2.22895
O          7.74356         8.81382         1.57642
H          7.05964         9.42624         1.95642
O         30.76448        11.08160         2.05282
H         29.89702        10.63285         1.97557
O         21.35386        17.76842         1.85722
H         21.20811        17.06646         2.52687
O         22.74573        17.64848        -1.51715
H         23.10211        18.33805        -2.11461
O         25.38023         9.87040         3.19969
H         24.90628         9.16317         3.69215
O         29.04773         1.90923        -0.01615
H         29.88155         2.42417        -0.06814
O         19.49144         6.11420        -0.93556
H         18.81921         5.54206        -1.36824
O         27.88617         8.36221         2.02629
H         28.84868         8.51150         1.88285
H          0.41015         0.90952         0.66195
H          0.27764         3.11349         1.80819
H          2.40203         0.15687        -0.42271
H          0.83846         5.56789         2.78828
H          1.21954         7.94469         3.10329
H          0.67583        11.07311         2.05661
H          0.56723        13.30353         1.01649
H          0.43438        14.91837         0.08985
H          0.59811        17.35453        -0.17910
H          1.89956        19.35291        -0.51528
H          4.83413         0.23489        -0.22262
H          4.05015        20.48437        -0.90988
H          7.21446         0.29462        -0.32327
H          6.27936        20.44675        -0.87501
H          9.69581         0.26615        -0.42565
H          9.00796        20.03592        -0.43638
H         12.20507         0.20049        -0.15612
H         11.35376        20.09522        -1.11705
H         14.69934         0.18133         0.01865
H         13.77638        20.05683        -1.16163
H         17.24337         0.17622        -0.09693
H         16.21967        20.03718        -1.08316
H         19.70078         0.26428        -0.17432
H         18.64103        20.04671        -0.95453
H         21.94686         0.17565         0.02891
H         21.23290        19.69974        -1.50075
H         24.81012         0.37687         0.09946
H         23.56696        20.15656        -0.06091
H         26.96337         0.45955        -1.08118
H         25.73500        20.30957         0.91591
H         28.94641         0.73623        -2.68139
H         28.13172        20.39862         1.28483
H         30.57409         2.22202        -3.80328
H         31.59995         4.38467        -4.10966
H         31.68719         6.80708        -3.74394
H         31.59753         8.79055        -3.39261
H         31.23972        11.24207        -3.20718
H         32.81333        12.54640         2.06207
H         32.96692        14.93097         1.53426
H         32.92142        16.89936         1.16070
H         30.57319        20.50755         1.41719
H         32.79259        19.36246         1.38196
