         658
 CSIRO Nanostructure Databank - Neutral Graphene Oxide Data Set
C          5.84879        31.83083        -0.44385
C          5.90243        33.16373        -0.75310
C          8.25073        27.48049         0.20460
C          8.23296        28.87565         0.02150
C          7.01884        29.64060        -0.05680
C          8.29303        31.67417        -0.54254
C          7.03530        31.00933        -0.31803
C          8.31200        33.00257        -1.02919
C          7.14286        33.86148        -1.04343
C          8.25448        36.20672        -1.20016
C          7.14327        35.26935        -1.12789
C          8.21318        37.48371        -0.63011
C         10.79382        23.19516         0.56984
C         10.72374        24.58749         0.33785
C          9.50154        25.32947         0.38298
C         10.71665        27.45501         0.15536
C          9.46713        26.73321         0.23592
C         10.70504        28.84881         0.06063
C          9.48958        29.57855        -0.07130
C         10.78567        31.67326        -0.49066
C          9.52110        30.96996        -0.35925
C         10.78589        33.00583        -1.01928
C          9.57124        33.49207        -1.45948
C         10.74873        36.20467        -1.17446
C          9.55390        35.70974        -1.61813
C         10.71551        37.63564        -0.82523
C          9.41310        38.26891        -0.44399
C         10.68228        40.27765         0.35870
C          9.42805        39.58584        -0.03578
C         10.73019        41.74703         0.53352
C         13.38528        19.05447         1.42533
C         13.35116        20.46916         1.17821
C         12.11559        21.14844         1.05850
C         13.25918        23.16502         0.29138
C         12.04955        22.50038         0.64533
C         13.16254        24.52484        -0.35448
C         11.94541        25.29565         0.09219
C         13.20149        27.37489        -0.04763
C         11.96479        26.69973         0.09820
C         13.17779        28.82255        -0.27178
C         11.99510        29.60369         0.23268
C         13.25448        31.69850        -0.44695
C         11.99956        31.01911        -0.26901
C         13.28298        33.16170        -0.70638
C         12.01572        33.87010        -1.06559
C         13.16586        36.07226        -0.31473
C         11.83465        35.32145        -0.55221
C         13.37380        37.55020        -0.81997
C         12.02248        38.32980        -0.66376
C         13.27242        40.33458         0.22793
C         12.00247        39.57724         0.16517
C         13.22772        41.83582         0.15385
C         11.90136        42.47007         0.51564
C         13.15370        44.60284         0.74697
C         11.94738        43.89969         0.64438
C         13.19608        46.02531         0.70342
C         15.82352        14.75600         1.15334
C         15.80825        16.18689         1.28856
C         14.59775        16.89913         1.36943
C         15.86156        19.03432         1.42910
C         14.57064        18.31775         1.41886
C         15.85759        20.54382         1.14490
C         14.55697        21.18377         0.91518
C         15.75307        23.15277         0.04231
C         14.51147        22.51304         0.41934
C         15.71910        24.54390        -0.57516
C         14.45080        25.28428        -0.25806
C         15.69948        27.39146        -0.04321
C         14.45390        26.67300        -0.16539
C         15.67176        28.83710         0.08052
C         14.46577        29.56238        -0.37896
C         15.74311        31.75029        -0.75167
C         14.46272        31.04259        -0.35620
C         15.73931        33.20809        -0.31129
C         14.49261        33.87532        -0.24538
C         15.76191        36.08741        -0.32541
C         14.44605        35.33473        -0.10132
C         15.67253        37.52054         0.14844
C         14.51493        38.21510        -0.02890
C         15.73258        40.45196         0.33149
C         14.45166        39.65447         0.22359
C         15.53845        41.64093         1.30357
C         14.39755        42.50013         0.83346
C         15.64046        44.57485         1.26188
C         14.40784        43.86271         0.95450
C         15.58741        46.03988         1.37927
C         14.37440        46.75171         0.90463
C         15.66301        48.86164         0.61574
C         14.46248        48.12903         0.59943
C         15.68574        50.18752         0.15094
C         18.11840        10.48304         0.20164
C         18.11761        11.88422         0.29734
C         16.97323        12.63784         0.64896
C         18.20088        14.85286         0.40858
C         16.95864        14.05110         0.74871
C         18.31408        16.10187         1.38201
C         17.05868        16.90174         1.25929
C         18.32717        19.00136         0.92812
C         17.10811        18.29341         1.17729
C         18.30987        20.39752         0.59941
C         17.08488        21.13814         0.59299
C         18.19084        23.11432        -0.45934
C         16.96906        22.46636         0.08210
C         18.24816        24.63930        -0.63079
C         16.96524        25.32394        -0.24742
C         18.19449        27.46396         0.13572
C         16.94686        26.69463         0.00177
C         18.21657        28.83363         0.11606
C         16.97705        29.63424         0.10386
C         18.21413        31.79243         0.05314
C         16.98751        31.01723        -0.31425
C         18.24233        33.22773        -0.48305
C         16.94006        33.89449        -0.12631
C         18.19843        36.04658         0.37818
C         16.88254        35.30151         0.39657
C         18.16222        37.39280         0.57572
C         16.86491        38.12995         0.84747
C         18.12853        40.29790         0.86678
C         16.96177        39.63379         0.65981
C         18.14697        41.71970         1.28144
C         16.84830        42.42795         1.50416
C         18.12137        44.60832         1.43077
C         16.84906        43.91088         1.42216
C         18.14503        46.01614         1.38162
C         16.89343        46.79523         1.50604
C         18.20090        48.81719         0.69083
C         16.91288        48.31522         1.29751
C         18.16487        50.10398        -0.08602
C         16.89563        50.90150        -0.04235
C         18.17404        52.94819        -0.58820
C         16.93515        52.24462        -0.41351
C         18.27507        54.22937        -1.11020
C         20.64571         6.18824         0.09133
C         20.60134         7.58968        -0.10377
C         19.34060         8.31643        -0.04051
C         20.61135        10.40577        -0.04221
C         19.29332         9.70293        -0.06278
C         20.62858        11.87369         0.14185
C         19.35999        12.65403        -0.09437
C         20.69601        14.78848         0.33940
C         19.43727        14.04327         0.48665
C         20.84000        16.08535         1.12215
C         19.56655        16.88551         1.09687
C         20.82896        18.94698         0.59592
C         19.57000        18.25271         0.86564
C         20.78146        20.34635         0.24400
C         19.54800        21.02055         0.20156
C         20.74627        23.18926        -0.34803
C         19.49259        22.39752        -0.34446
C         20.76080        24.54444        -0.15144
C         19.46448        25.24076         0.06508
C         20.76404        27.42890         0.29449
C         19.47072        26.71717         0.30980
C         20.74236        28.91468         0.52924
C         19.50305        29.55694        -0.05416
C         20.74921        31.78781         0.03751
C         19.50088        31.04155        -0.20659
C         20.71224        33.20717         0.11116
C         19.48464        33.94346         0.02436
C         20.69986        35.99446         0.58401
C         19.47049        35.31549         0.30155
C         20.66262        37.41505         1.10179
C         19.44346        38.14386         0.59639
C         20.67753        40.34820         1.05399
C         19.43256        39.62300         0.74287
C         20.64737        41.75289         1.21423
C         19.41281        42.47641         1.23362
C         20.62824        44.59375         1.38923
C         19.37749        43.87752         1.36830
C         20.59507        46.01971         1.30406
C         19.38067        46.71637         1.23944
C         20.67123        48.77292         0.61070
C         19.38351        48.13722         0.88990
C         20.65717        50.15347         0.12198
C         19.39699        50.92485         0.07020
C         20.63187        53.05945        -0.12553
C         19.40513        52.27490        -0.20492
C         20.73588        54.33318        -0.63299
C         19.53169        54.93132        -1.21586
C         20.74103        57.03282        -1.81918
C         19.56003        56.16278        -1.84345
C         20.88797        58.13995        -2.74849
C         23.05543         3.32352         0.18615
C         21.87432         4.05231         0.26908
C         23.10884         6.10087        -0.24230
C         21.87351         5.45451         0.03903
C         23.08835         7.55024        -0.65673
C         21.79870         8.26823        -0.41599
C         23.16039        10.43760        -0.88596
C         21.74856         9.71053        -0.77886
C         23.18083        11.86879        -0.38543
C         21.94471        12.59503         0.00948
C         23.28864        14.71288         0.29431
C         21.96560        14.08658         0.01081
C         23.29072        16.12412         0.62398
C         22.09796        16.82884         0.74695
C         23.30677        18.95128         0.31283
C         22.05454        18.25731         0.58829
C         23.24046        20.36214        -0.03647
C         22.02004        21.01328        -0.10605
C         23.23559        23.19749        -0.41504
C         21.98225        22.41334        -0.68570
C         23.20444        24.62063        -0.18638
C         22.00304        25.30033        -0.02382
C         23.21229        27.48310         0.33865
C         21.98307        26.74374         0.22963
C         23.24116        28.92119         0.20185
C         22.00140        29.64234         0.13214
C         23.19818        31.81634         0.11429
C         21.97439        31.07246         0.08940
C         23.18885        33.20611         0.27809
C         21.93745        33.91042         0.31399
C         23.18785        36.01723         0.82091
C         21.91402        35.31083         0.53297
C         23.19209        37.50735         0.98446
C         21.92137        38.22662         0.89975
C         23.16652        40.34772         1.14128
C         21.91292        39.62409         0.99365
C         23.12870        41.72283         1.36542
C         21.88955        42.46682         1.36137
C         23.17094        44.60739         1.26081
C         21.86180        43.87455         1.42609
C         23.13139        46.07776         1.61505
C         21.84620        46.80127         1.43391
C         23.17360        48.87141         0.78692
C         21.88218        48.18664         0.92525
C         23.20902        50.23191         0.54207
C         21.95706        50.92782         0.21183
C         23.42605        52.93377        -1.07367
C         21.75059        52.36764         0.57628
C         23.34179        54.39430        -0.85636
C         22.05118        55.12479        -0.48539
C         23.28751        57.16964        -1.50370
C         22.01313        56.51244        -1.15077
C         23.30238        58.35460        -2.22212
C         22.08178        58.85078        -2.85236
C         23.35920        60.67004        -3.89992
C         22.15167        60.01078        -3.68004
C         24.26797         3.96434        -0.08636
C         25.62809         5.99753        -0.46683
C         24.32595         5.36643        -0.25830
C         25.89282         7.26824         0.03303
C         24.11934         8.36630         0.05888
C         25.58062        10.34529        -0.04555
C         24.30927         9.71866        -0.17713
C         25.62215        11.85655         0.11358
C         24.46996        12.63064        -0.62744
C         25.76709        14.63067         0.13674
C         24.43271        14.02030        -0.01952
C         25.85482        16.07231         0.51212
C         24.58567        16.86960         0.88443
C         25.80419        19.08152         0.46309
C         24.52242        18.28970         0.37073
C         25.71128        20.44221        -0.18665
C         24.49516        21.07629        -0.30588
C         25.65462        23.29494        -0.74957
C         24.43162        22.52032        -0.47275
C         25.72400        24.70576        -0.37390
C         24.48218        25.29118         0.14649
C         25.80063        27.50847         0.49088
C         24.47878        26.77127         0.52149
C         25.79479        29.03274         0.51283
C         24.45623        29.61768         0.12032
C         25.72843        31.77018         0.17931
C         24.45438        31.07424        -0.24082
C         25.70411        33.25823         0.31717
C         24.41974        33.97296         0.31995
C         25.69585        36.10420         0.36829
C         24.45595        35.34672         0.45998
C         25.66590        37.54596         0.59366
C         24.46686        38.23825         0.84003
C         25.66944        40.32937         1.25859
C         24.44160        39.64557         1.07544
C         25.67680        41.72822         1.61307
C         24.37690        42.40083         1.76741
C         25.66313        44.60646         1.79574
C         24.37898        43.91087         1.86274
C         25.63937        46.11478         1.93386
C         24.40216        46.80218         1.38604
C         25.71074        48.83469         0.94962
C         24.42194        48.12383         1.02944
C         25.70711        50.19971         0.29371
C         24.48226        51.06609         0.58549
C         25.77584        52.99865        -0.40982
C         24.55388        52.29118        -0.35507
C         25.79702        54.39805        -0.79607
C         24.55309        55.09610        -0.82310
C         25.87364        57.25118        -1.35178
C         24.53093        56.56557        -0.98181
C         25.78507        58.44583        -2.17737
C         24.56686        59.00944        -2.54747
C         24.54746        60.18088        -3.36365
C         26.91935         8.20032        -0.27784
C         28.05443        10.35537        -0.26717
C         26.82348         9.61167        -0.12498
C         28.13530        11.74222        -0.37528
C         26.91712        12.52777        -0.27893
C         28.15051        14.58168        -0.99322
C         26.94257        13.88382        -0.40096
C         28.13377        16.07871        -0.70431
C         27.11058        16.79021         0.11580
C         28.09868        18.95315        -0.82218
C         27.07467        18.29161         0.05693
C         28.08648        20.40817        -1.02588
C         27.02013        21.18633        -0.28347
C         28.20988        23.29268        -0.83108
C         26.93924        22.55656        -0.89862
C         28.17170        24.67048        -0.63504
C         26.94625        25.36076        -0.35920
C         28.22164        27.55000        -0.44628
C         27.04290        26.78554         0.06070
C         28.12775        28.99076        -0.59727
C         26.97835        29.67004        -0.23018
C         28.01974        31.87501        -0.75680
C         26.96299        31.10136        -0.28361
C         27.80332        33.28176        -0.88027
C         26.86596        34.02804        -0.17238
C         28.14717        36.29026        -0.32851
C         26.88054        35.45993        -0.03066
C         28.14399        37.59217         0.46035
C         26.90855        38.26728         0.66011
C         28.14304        40.27750         1.38413
C         26.90958        39.62625         1.09989
C         28.12135        41.66723         1.89475
C         26.85831        42.43336         1.80740
C         28.12672        44.58446         1.92032
C         26.88880        43.89335         1.89743
C         28.16567        46.10085         1.98347
C         26.90985        46.68878         1.32474
C         28.22842        48.87527         1.37840
C         26.88195        48.19514         1.22202
C         28.24509        50.31403         0.87050
C         26.96253        51.01415         0.53197
C         28.27121        52.95428        -0.33685
C         27.01062        52.34543        -0.11072
C         28.33870        54.30073        -1.03334
C         27.03909        55.07966        -1.02174
C         27.07592        56.41147        -1.36663
C         29.37311        12.45769        -0.40765
C         30.74124        14.46733        -0.49765
C         29.46424        13.84342        -0.60502
C         31.02608        15.75944        -1.00738
C         29.15253        16.82641        -1.23759
C         30.61514        18.87350        -1.08153
C         29.36421        18.22751        -1.05007
C         30.64436        20.31966        -1.09117
C         29.38118        21.11081        -1.44264
C         30.65179        23.21175        -0.90697
C         29.42098        22.54632        -0.95004
C         30.67970        24.64828        -0.83066
C         29.45396        25.40373        -0.36965
C         30.57908        27.57153        -1.18883
C         29.35953        26.86039        -0.76525
C         30.62596        29.04853        -1.03820
C         29.31450        29.73996        -1.11363
C         30.68169        32.02263        -1.30156
C         29.29934        31.25068        -1.21291
C         30.71010        33.41892        -0.67850
C         29.67216        34.32147        -0.90227
C         30.61384        36.04315         0.43065
C         29.48113        35.53785        -0.21136
C         30.54906        37.37659         1.05086
C         29.32835        38.19571         0.89982
C         30.63743        40.24320         1.54874
C         29.35389        39.56300         1.33011
C         30.68067        41.68164         1.73595
C         29.43586        42.39249         2.09308
C         30.63705        44.58772         1.61360
C         29.43911        43.91838         2.26910
C         30.58208        45.87223         1.13964
C         29.37772        46.68778         1.27160
C         30.42560        48.56371        -0.01382
C         29.35104        47.99313         0.87719
C         30.55422        50.06799         0.02583
C         29.49142        50.88606         0.31341
C         29.46047        52.26591        -0.10227
C         31.97175        16.71749        -0.63728
C         33.06072        18.88910        -0.79892
C         31.88194        18.14001        -0.90773
C         33.10327        20.31193        -0.88428
C         31.84848        21.02635        -1.00049
C         33.10633        23.16785        -0.98811
C         31.88275        22.47398        -1.00449
C         33.12429        24.60559        -1.04667
C         31.86790        25.31683        -1.01391
C         33.09637        27.50480        -0.89737
C         31.84423        26.78375        -1.24188
C         33.08109        28.97915        -0.69877
C         31.81389        29.74443        -0.89695
C         33.07510        31.81405        -0.43767
C         31.86471        31.18113        -0.79423
C         33.10240        33.21267        -0.08844
C         31.87423        33.96081        -0.06900
C         33.08469        35.96952         0.71740
C         31.84200        35.30911         0.40932
C         33.11170        37.37012         0.99115
C         31.85938        38.08028         1.33247
C         33.16727        40.21457         1.65280
C         31.83431        39.54436         1.43902
C         33.11478        41.70335         1.44927
C         31.89796        42.38530         1.60958
C         33.11765        44.52082         1.07883
C         31.96148        43.89060         1.82504
C         33.02630        45.81905         0.61387
C         31.78679        46.54635         0.62463
C         31.72780        47.83462         0.15507
C         34.31335        21.02478        -0.85816
C         35.56535        23.17539        -0.91758
C         34.35865        22.44948        -0.93517
C         35.59315        24.59972        -0.97845
C         34.34343        25.29855        -1.08153
C         35.63497        27.53752        -1.08476
C         34.35731        26.77246        -1.21637
C         35.58960        28.98655        -0.74393
C         34.37562        29.69913        -0.68775
C         35.56944        31.77415        -0.21595
C         34.33913        31.08839        -0.41927
C         35.57401        33.18331         0.10352
C         34.32169        33.87386         0.20891
C         35.54699        35.97369         0.68561
C         34.31250        35.27081         0.54452
C         35.54455        37.39137         0.81846
C         34.31379        38.08045         0.92729
C         35.59513        40.27170         1.03103
C         34.26669        39.58421         0.79488
C         35.57817        41.65928         1.14243
C         34.34988        42.39783         1.21966
C         34.32325        43.78426         0.98350
C         36.80126        25.33642        -0.84575
C         38.02207        27.46090        -0.50012
C         36.86084        26.75407        -0.80482
C         38.06293        28.89836        -0.44314
C         36.81803        29.66589        -0.55700
C         38.05697        31.80859        -0.28732
C         36.79378        31.06176        -0.33456
C         38.05960        33.18538         0.22014
C         36.79026        33.86884         0.34935
C         38.01062        35.98537         0.81467
C         36.78705        35.26718         0.63405
C         38.00301        37.36770         0.91434
C         36.79060        38.11439         0.88900
C         36.78902        39.52022         1.00366
C         39.25641        29.53698        -0.14945
C         40.51762        31.68779         0.41087
C         39.38102        30.99345        -0.19138
C         40.47396        33.03373         0.63980
C         39.26233        33.79977         0.53531
C         39.31758        35.24332         0.96977
O         22.85493        12.04049         1.01664
O         11.35329        39.48971         1.46525
O         26.08897        15.05454         1.54170
O         28.75954        41.76095         3.24386
O         28.64629        33.94552        -1.78042
O         27.53934        51.13572         1.86787
O         21.44295        50.44224        -1.07204
O         31.17717        27.14070        -2.49282
O         17.56531        41.89218         2.66198
O         26.74310        26.99629         1.48708
O         16.10148        46.47608         2.69935
O         20.71592        10.98668         1.30061
O         23.21430        36.58692         2.18959
O         35.04549        27.25899        -2.41504
O         24.92761         7.74035         0.98902
O         29.09160        30.42619        -2.41092
O         25.82849        32.36917         1.50088
O         13.77735        29.09219        -1.58973
O         21.23672        14.80653        -1.05351
O         22.42216        46.54248         2.79235
O         19.61089        38.94918        -0.60535
O         24.48329        25.73629         1.55112
O         19.29990        25.71367         1.42543
O         12.95647        33.57351        -2.12770
O         18.25784        49.62470        -1.57846
O         24.18605        43.10667         3.05505
O         19.59837        30.16057        -1.38250
O         27.69041        17.61793         1.19331
O         11.32845        38.46916        -1.92055
O         18.73834        22.43167        -1.64268
O         26.16134        22.84187        -2.08584
O         21.19310         9.83725        -2.23143
O          9.55076        34.53592        -2.36822
O         16.14893        29.38716         1.35749
O         16.00663        20.00643         2.50831
O         27.52118        19.54428        -2.06327
O         13.77342        37.50121        -2.14215
O         13.64431        35.86538         1.03691
O         21.13150        57.41046        -0.41519
O         25.24162        57.36437        -0.01703
O         30.11603        16.16754        -2.01608
O         31.09627        37.41405         2.40865
O         38.91318        31.59316        -1.44688
O         22.31608        52.85327         1.55318
O         33.02995        28.03811         0.46692
O         25.56571        46.35124         3.36047
H         26.49257        46.39106         3.71434
O         21.05118        15.63056         2.50967
H         21.35817        16.39987         3.03569
O         29.61025        44.13663         3.72842
H         29.11265        43.39454         4.15731
O         11.25497        35.09537         0.77129
H         11.95147        35.31326         1.43934
O         16.45553        35.22122         1.79514
H         17.05891        34.60197         2.25952
O         28.02851        14.41945        -2.43553
H         28.81075        14.86594        -2.83410
O         24.63381        51.54881         1.93550
H         23.87583        52.16333         2.11523
O         23.46267        44.58737        -0.18244
H         22.65025        44.84644        -0.66712
O         24.52694        31.12361        -1.72094
H         23.68787        30.75590        -2.07379
O         33.54431        39.96865         3.04070
H         32.84639        40.34442         3.61774
O         15.75910        31.75223        -2.21639
H         14.97244        32.25376        -2.52551
O         22.18738        55.41409         0.92930
H         21.63226        56.20437         1.11844
O         25.71499        49.92069        -1.13689
H         24.78691        49.87258        -1.45276
O         23.41790         7.64882        -2.10672
H         22.55825         7.58731        -2.59218
O         25.97202        29.43548         1.90055
H         26.50449        28.72662         2.33296
O         27.51340        21.42518         1.06588
H         27.12786        20.73401         1.66408
O         23.52780        10.44708        -2.28022
H         23.56687         9.49761        -2.56654
O         18.42799        24.90100        -2.06003
H         18.77377        24.05307        -2.44497
O         22.67342        52.35900        -1.87469
O         40.38091        35.92571         0.28808
H         40.24347        35.81831        -0.67536
O         13.40772        42.15373        -1.27157
H         14.31253        41.83297        -1.51400
O         25.95643        19.37899         1.89486
H         25.72792        18.54279         2.38138
O         30.93878        32.21050        -2.71277
H         30.50632        31.45886        -3.18420
O         32.29581        44.06824         3.24156
H         31.44484        44.06539         3.74646
O         19.29147        12.83494        -1.54753
H         18.62058        13.53506        -1.72384
O         16.62447        37.98076         2.28553
H         16.40867        37.02572         2.43441
O         25.39881        12.07780         1.52928
H         26.11117        11.62806         2.02881
O         21.94851        22.20847        -2.14378
H         22.01459        23.08667        -2.57438
O         28.20339        46.45079         3.39073
H         28.87563        45.86374         3.81723
O         17.16487        48.71652        -1.80142
H         16.53581        49.25146        -2.34446
O         18.12786        31.95694         1.51036
H         17.98131        31.07590         1.92069
O         26.97415        46.21933        -0.05529
H         26.20933        46.59579        -0.54097
O         29.59541        25.43848         1.09891
H         29.35779        24.55306         1.44834
O         29.97950        48.28970        -1.40160
H         29.79512        47.32765        -1.46372
O         20.58151        29.11192         1.98308
H         21.30668        28.62747         2.43307
O         28.45575        48.96532         2.81313
H         27.89166        49.70381         3.14073
O         29.36881        21.20472        -2.89401
H         28.75500        20.50458        -3.21942
O         15.71359        24.32854        -2.04839
H         16.60536        24.59917        -2.38944
O         24.65889        17.01072         2.35325
H         25.04879        16.16106         2.67788
O         28.03152        36.69636        -1.72626
H         28.08708        35.87229        -2.26348
O         15.12704        41.11535         2.57733
H         15.94742        40.95607         3.10220
O         15.98704        41.05062        -0.98293
H         16.12386        40.31833        -1.62303
O         16.00949        36.10304        -1.73837
H         15.24202        36.62899        -2.14257
O         24.78044        12.78041        -2.01249
H         24.50899        11.95352        -2.48101
O         18.04591        15.38922        -0.94467
H         18.93516        15.65648        -1.26680
O         29.40863        55.08969        -0.50491
H         29.16105        55.37421         0.39884
O         18.35160        15.55939         2.72329
H         19.27972        15.25892         2.89260
O         20.87255         8.53976        -2.76910
H         19.94223         8.39072        -2.46480
O         12.22717        29.66889         1.68683
H         11.47610        30.15471         2.08877
O         20.50163        37.30411         2.55192
H         21.35034        36.93275         2.89635
O         33.89253        39.84670        -0.59067
H         34.61178        39.51339        -1.16708
O         18.34289        33.16468        -1.92547
H         17.95331        33.98011        -2.30529
O         16.89433        48.92110         2.62612
H         16.40157        48.29478         3.20854
O         12.94580        24.28235        -1.80147
H         13.83977        24.17496        -2.21187
H          4.87119        31.36059        -0.25889
H          4.96578        33.74121        -0.78863
H          7.29619        26.94006         0.29638
H          6.05622        29.12017         0.06145
H          6.16169        35.73937        -0.93950
H          7.26762        37.86536        -0.21464
H          9.87216        22.64041         0.80105
H          8.55539        24.78104         0.50874
H          8.48103        40.13664         0.07765
H          9.77294        42.28067         0.65386
H         12.42616        18.51918         1.49271
H         11.18325        20.60543         1.27479
H         11.00039        44.46136         0.67406
H         12.27925        46.57073         0.43107
H         14.88530        14.20698         1.33151
H         13.64512        16.34892         1.35485
H         13.56122        48.62392         0.20288
H         14.73190        50.68022        -0.09959
H         17.17656         9.94359         0.39391
H         16.04558        12.09529         0.89628
H         15.99164        52.79963        -0.53163
H         17.36936        54.74697        -1.46087
H         19.71426         5.64333         0.30276
H         18.41490         7.73457         0.08801
H         18.64560        56.54773        -2.31961
H         20.03571        58.41230        -3.38894
H         23.03971         2.23615         0.34502
H         20.92642         3.54429         0.49846
H         23.37824        61.57161        -4.52805
H         21.22755        60.38686        -4.14151
H         25.19799         3.37896        -0.12107
H         26.39884         5.45364        -1.03257
H         26.71276        58.85195        -2.60962
H         25.49827        60.68815        -3.58083
H         27.84755         7.80653        -0.71974
H         28.98777         9.77283        -0.31043
H         28.60481        54.09712        -2.11041
H         28.03142        56.86430        -1.67107
H         30.30477        11.88139        -0.28933
H         31.53026        13.92085         0.04422
H         31.45548        50.50332        -0.43514
H         30.40862        52.75195        -0.37996
H         32.83517        16.38921        -0.03713
H         34.01130        18.35288        -0.65360
H         33.90841        46.29666         0.15987
H         32.64310        48.31086        -0.22928
H         35.26016        20.46768        -0.78712
H         36.51817        22.62944        -0.84312
H         36.52777        42.21613         1.15424
H         35.23619        44.29109         0.63486
H         37.73714        24.77638        -0.69452
H         38.95593        26.91040        -0.30917
H         38.95884        37.90088         1.02369
H         37.75029        40.04516         1.11505
H         40.14531        28.93904         0.10295
H         41.40790        31.10449         0.68851
H         41.36338        33.54880         1.03089
H         39.59098        35.26691         2.06428
