         404
 CSIRO Nanostructure Databank - Neutral Graphene Oxide Data Set
C          1.62653         2.25896        -2.83275
C          1.57892         3.64441        -2.65751
C          2.81789         1.56207        -2.68016
C          2.74431         4.37849        -2.32310
C          1.50284         6.56672        -2.30262
C          1.39672         7.89256        -2.02453
C          2.69443         5.79015        -2.03669
C          2.42915         8.59793        -1.25325
C          1.29867        10.86389        -1.44872
C          1.19446        12.19032        -1.16218
C          2.46176        10.07204        -1.12230
C          2.23351        12.88320        -0.38699
C          1.15123        15.18198        -0.92509
C          1.31543        16.47594        -1.27822
C          2.23815        14.42867        -0.18529
C          2.55188        17.20322        -1.02843
C          2.63653        18.60456        -1.20163
C          4.02878         2.24765        -2.37699
C          3.99005         3.68504        -2.20741
C          5.20463         1.52387        -2.13801
C          5.16157         4.39916        -1.84399
C          3.85696         6.45086        -1.58502
C          3.75724         7.83385        -1.07205
C          5.09654         5.76705        -1.52752
C          4.96952         8.63530        -0.85279
C          3.62355        10.69697        -0.67676
C          3.54447        12.11414        -0.25871
C          4.88125         9.97947        -0.57536
C          4.78999        12.89127        -0.04773
C          3.60961        14.98371        -0.63142
C          3.68616        16.49231        -0.56840
C          4.78340        14.24871        -0.01578
C          4.87025        17.17411        -0.26937
C          3.81937        19.27970        -0.95058
C          4.96680        18.58411        -0.47599
C          6.49001         2.17301        -1.97170
C          6.48198         3.73612        -1.83763
C          7.65175         1.48144        -1.44417
C          7.60992         4.36431        -1.10935
C          6.35465         6.50480        -1.24630
C          6.29620         7.97238        -0.94006
C          7.55395         5.74492        -0.82212
C          7.43969         8.59446        -0.22855
C          6.14806        10.72463        -0.32172
C          6.08485        12.17936        -0.01808
C          7.36707         9.96571         0.07973
C          7.24313        12.86731         0.58002
C          5.97809        14.97785         0.47386
C          6.01721        16.47576         0.35198
C          7.24898        14.24217         0.67852
C          7.32767        17.14218         0.40392
C          6.20058        19.24436        -0.23733
C          7.37123        18.54591         0.14774
C          8.79108         2.16893        -1.01604
C          8.76170         3.60823        -0.79285
C          9.97909         1.45650        -0.71977
C          9.86517         4.25122        -0.15876
C          8.64369         6.39959        -0.19153
C          8.58702         7.83808         0.10939
C          9.78215         5.63416         0.15498
C          9.67704         8.50389         0.72502
C          8.47233        10.62807         0.65165
C          8.39143        12.06247         1.00666
C          9.66594         9.91014         0.92901
C          9.67203        12.81998         1.34774
C          8.46981        14.98184         0.92053
C          8.49667        16.41333         0.74157
C          9.67822        14.28761         1.14901
C          9.74521        17.10596         0.85979
C          8.61594        19.22140         0.28232
C          9.77910        18.53678         0.63245
C         11.13826         2.11140        -0.26538
C         11.08350         3.50900         0.07831
C         12.36185         1.40722        -0.13685
C         12.25095         4.13651         0.56119
C         10.85859         6.23964         0.97029
C         10.83539         7.72531         1.21012
C         12.14956         5.48102         1.17357
C         12.14098         8.45983         1.45148
C         10.90417        10.63302         1.23216
C         10.93691        12.05566         1.28533
C         12.13840         9.93469         1.29139
C         12.15544        12.75677         1.36944
C         10.90484        14.99350         1.27026
C         10.93545        16.39897         1.15476
C         12.13704        14.22896         1.58206
C         12.19393        17.17673         1.51657
C         11.03353        19.22194         0.64507
C         12.22558        18.56965         0.92931
C         13.55135         2.07431         0.17959
C         13.49891         3.47275         0.51926
C         14.79801         1.36939         0.21062
C         14.71744         4.21050         0.72965
C         13.42641         6.19477         1.65212
C         13.41833         7.70559         1.39236
C         14.69265         5.54495         1.11164
C         14.60380         8.39197         1.34520
C         13.35806        10.63686         1.26849
C         13.38700        12.05527         1.30799
C         14.61240         9.86264         1.11610
C         14.66185        12.77525         1.32071
C         13.47056        14.97342         1.54164
C         13.47427        16.41482         1.25444
C         14.69697        14.20853         1.31782
C         14.66245        17.06818         0.98599
C         13.46352        19.21478         0.73256
C         14.68611        18.51436         0.78134
C         16.01343         2.03935         0.31674
C         15.98045         3.55177         0.18022
C         17.24489         1.34443         0.30454
C         17.26195         4.21729         0.68529
C         15.90425         6.32332         1.23333
C         15.87770         7.69255         1.40152
C         17.20999         5.62385         1.16206
C         17.11606         8.45230         1.84283
C         15.91503        10.61691         1.18235
C         15.86660        12.07317         1.33920
C         17.17251         9.89329         1.43135
C         17.13906        12.79916         1.46194
C         15.91456        14.91735         1.10157
C         15.91407        16.34260         0.93289
C         17.15435        14.22618         1.11544
C         17.13309        17.02440         0.73980
C         15.91245        19.16804         0.58292
C         17.14175        18.46555         0.56484
C         18.48602         1.97104         0.57913
C         18.42176         3.35917         1.09299
C         19.71656         1.31540         0.60762
C         19.68463         4.04092         1.55204
C         18.40110         6.27949         1.79731
C         18.42505         7.74016         1.62510
C         19.69584         5.52465         1.80482
C         19.63255         8.41521         1.48583
C         18.39612        10.55122         1.36303
C         18.43522        12.03528         1.41082
C         19.62341         9.84100         1.33600
C         19.66938        12.74852         1.02009
C         18.38265        14.89236         0.90041
C         18.36893        16.30997         0.70047
C         19.63174        14.16977         0.84550
C         19.59047        16.99741         0.43724
C         18.36025        19.13626         0.36702
C         19.59230        18.44360         0.28253
C         20.95228         1.98942         0.90796
C         20.96534         3.37342         1.26837
C         22.18532         1.31585         0.78302
C         22.17125         4.10877         1.31143
C         20.94645         6.27310         1.56913
C         20.90612         7.67957         1.46462
C         22.16901         5.56088         1.45191
C         22.13316         8.39088         1.40180
C         20.86479        10.52518         0.83775
C         20.86460        12.03662         0.92943
C         22.10630         9.87904         1.41553
C         22.10019        12.73740         0.75230
C         20.82967        14.86027         0.51030
C         20.78502        16.26885         0.28884
C         22.08355        14.14543         0.48658
C         21.99077        16.97821        -0.16278
C         20.80351        19.13487         0.08568
C         22.03315        18.45373        -0.08982
C         23.41128         2.00070         0.91794
C         23.40447         3.42228         1.12561
C         24.65438         1.31538         0.78645
C         24.63949         4.14418         1.11837
C         23.39224         6.28434         1.41411
C         23.35815         7.71113         1.44656
C         24.64287         5.56543         1.26836
C         24.62270         8.48483         1.54239
C         23.38921        10.65346         1.27934
C         23.34361        12.05937         0.84478
C         24.65545         9.92060         1.21751
C         24.56760        12.73077         0.62242
C         23.31317        14.81400         0.26481
C         23.31294        16.22126        -0.16143
C         24.55538        14.14657         0.34697
C         24.55640        16.99140        -0.07951
C         23.25815        19.10440        -0.23935
C         24.50982        18.40465        -0.24194
C         25.87636         1.99582         0.81348
C         25.86990         3.44020         0.96125
C         27.11566         1.31671         0.60538
C         27.07778         4.15750         0.83321
C         25.86546         6.26008         1.12377
C         25.92929         7.71909         1.36899
C         27.04780         5.55820         0.81849
C         27.13653         8.47580         1.02736
C         25.83279        10.58768         0.85780
C         25.78577        11.99132         0.57002
C         27.11717         9.86983         0.83341
C         26.97189        12.68330         0.06876
C         25.78842        14.87159         0.18196
C         25.78865        16.31512         0.07479
C         27.00467        14.15829         0.07554
C         27.02320        17.04141         0.05385
C         25.73440        19.09812        -0.35425
C         26.98697        18.46669        -0.22029
C         28.35001         1.98410         0.56753
C         28.40712         3.44562         0.94470
C         29.57009         1.32361         0.37322
C         29.56634         4.19527         0.32161
C         28.22543         6.32146         0.27388
C         28.37713         7.69255         0.89440
C         29.51786         5.55979         0.24740
C         29.68456         8.41141         0.73187
C         28.33140        10.57639         0.63069
C         28.32096        11.94021         0.11278
C         29.63586         9.90710         0.81694
C         29.56038        12.74517         0.06661
C         28.23610        14.84723        -0.02503
C         28.23844        16.27343         0.09051
C         29.51067        14.15822        -0.06843
C         29.49835        16.89320         0.27508
C         28.14536        19.26846        -0.54384
C         29.43076        18.97319        -0.10756
C         30.80436         2.03365         0.22729
C         30.79397         3.46789         0.05184
C         32.03528         1.36518         0.19256
C         31.95670         4.13081        -0.37774
C         30.66132         6.33028        -0.28530
C         30.79447         7.76766         0.00799
C         31.87865         5.56559        -0.71719
C         31.99408         8.46459        -0.27450
C         30.88720        10.63999         0.44072
C         30.80114        12.08162         0.10107
C         32.06699         9.87861        -0.03420
C         31.99637        12.79394        -0.06288
C         30.73417        14.89295        -0.19882
C         30.73804        16.33878        -0.14406
C         31.97603        14.20148        -0.23181
C         31.90917        17.12610        -0.41728
C         30.71139        19.38742        -0.53987
C         31.89709        18.60563        -0.41838
C         33.24775         2.06522        -0.03591
C         33.21766         3.44954        -0.41394
C         34.49943         1.43323         0.13665
C         34.44332         4.09969        -0.74949
C         33.13420         6.32494        -1.02849
C         33.18153         7.78958        -0.75003
C         34.40832         5.52899        -1.17969
C         34.39228         8.49866        -0.83452
C         33.25706        10.58462        -0.23535
C         33.26981        12.05074        -0.01521
C         34.45295         9.90052        -0.57522
C         34.51728        12.80942        -0.39441
C         33.18629        14.94421        -0.46744
C         33.11177        16.36142        -0.69461
C         34.41937        14.26149        -0.67072
C         34.29924        16.95015        -1.19639
C         33.09227        19.40088        -0.28371
C         34.34001        19.04032        -0.82021
C         35.71742         2.07762        -0.12108
C         35.68497         3.43083        -0.65388
C         36.91133         1.38906         0.34579
C         36.91646         4.19734        -0.86923
C         35.69118         6.30719        -1.25073
C         35.66457         7.81480        -1.16722
C         36.94701         5.61189        -0.94734
C         36.95348         8.51118        -0.93798
C         35.69355        10.63741        -0.76725
C         35.67764        12.03100        -0.83808
C         36.94507         9.93992        -0.94315
C         36.87197        12.74709        -1.29534
C         35.60121        14.96216        -0.96369
C         35.58473        16.37317        -1.09277
C         36.84684        14.26924        -1.32577
C         36.80954        17.14675        -1.11327
C         35.65256        19.35646        -0.46908
C         36.80982        18.57337        -0.84549
C         38.17875         1.59634        -0.16746
C         38.17155         3.57601        -0.98748
C         39.47094         1.32870         0.37731
C         39.39351         4.22937        -0.69767
C         38.17019         6.33748        -0.88452
C         38.14527         7.78653        -0.94899
C         39.38826         5.64355        -0.64112
C         39.42308         8.50991        -1.07301
C         38.17266        10.66680        -1.02632
C         38.16880        12.08284        -1.16093
C         39.42321         9.97771        -1.03433
C         39.36196        12.83568        -1.20940
C         38.10859        15.00683        -1.24099
C         38.05849        16.43786        -1.13485
C         39.33276        14.28958        -1.25301
C         39.29956        17.14896        -1.08557
C         38.04863        19.23414        -0.75794
C         39.28349        18.57160        -0.93733
C         40.57950         2.12420         0.07231
C         40.58660         3.45474        -0.41950
C         41.83596         4.18449        -0.44891
C         40.64132         6.36919        -0.19625
C         40.73802         7.78124        -0.76030
C         41.87936         5.54026        -0.43532
C         41.86051         8.64370        -0.38377
C         40.63121        10.69478        -0.98754
C         40.61408        12.14019        -1.10612
C         41.83521         9.98671        -0.61703
C         41.80262        12.89707        -1.13477
C         40.56970        15.01005        -1.22441
C         40.54929        16.46346        -1.17273
C         41.77775        14.28573        -1.19835
C         41.73581        17.22270        -1.16945
C         40.50625        19.29310        -0.92253
C         41.71019        18.61907        -1.05373
O          8.77666        12.34505         2.39913
O         12.78296        14.64052         2.83730
O         17.64091         5.30075        -0.23948
O         40.29482         7.93214        -2.12424
O          2.77570         7.93973         0.01067
O         18.97788         5.83441         3.05951
O         34.18804        12.50154         1.03073
O         30.52497        10.43464         1.86542
O         15.30966        10.19829        -0.14097
O         29.49955        18.07547         0.99285
O         11.25817         8.05917         2.56543
O         33.59140         5.84915        -2.34574
O          6.64578         7.51312        -2.29680
O          6.43029        11.69681        -1.40636
O         18.79029         3.37134         2.50656
O         22.55324        16.44145        -1.40863
O         30.85505         5.94236        -1.71572
O         29.31755         7.74411         2.01137
O          6.83544         3.11224        -3.07409
O         25.42427         8.09704         2.70710
O         17.90649        12.50681         2.70979
O         11.10386         5.48777         2.20763
O         34.21492        18.13827        -1.90485
O         27.53848        12.06850        -1.13921
O          2.58663        12.23188         0.87384
O         38.21747         2.25439        -1.41980
O         36.68985        13.47725        -2.56834
O         35.73153         7.12482        -2.46463
O          5.64499        15.82439         1.63645
O         22.66165        10.47277         2.60406
O         16.94902         8.50481         3.32114
H         17.79386         8.82078         3.70883
O         15.91137         3.76352        -1.25838
H         16.40678         4.59806        -1.44118
O         12.13262        17.35294         2.96999
H         12.25148        16.45350         3.36292
O          2.03492        14.69585         1.20757
H          2.32914        13.89640         1.70568
O         13.48277         6.03676         3.09058
H         12.57143         6.21163         3.42428
O         40.53750         6.56171         1.25709
H         40.55159         5.67462         1.67470
O         28.70702         3.45366         2.38515
H         27.98256         2.97547         2.84155
O         20.95556        10.22148        -0.60224
H         20.12413        10.51708        -1.02998
O         27.89273         6.56932        -1.13821
H         28.61960         6.22119        -1.70155
O          3.67668        14.65099        -2.05673
H          4.50036        15.03099        -2.42779
H          0.70365         1.71469        -3.07731
H          0.61139         4.15425        -2.75037
H          2.84124         0.47031        -2.80448
H          0.67694         6.08435        -2.84317
H          0.51572         8.44569        -2.37872
H          0.46967        10.37687        -1.98119
H          0.32347        12.75263        -1.52641
H          0.16485        14.71114        -1.05028
H          0.47987        17.03114        -1.73192
H          1.75252        19.15669        -1.55223
H          5.15208         0.43014        -2.03341
H          3.88151        20.36547        -1.11169
H          7.63122         0.38335        -1.38567
H          6.26227        20.33057        -0.39944
H         10.01609         0.37603        -0.92177
H          8.66178        20.30332         0.08969
H         12.38716         0.33307        -0.37249
H         11.05782        20.27380         0.32087
H         14.78412         0.27099         0.14017
H         13.46963        20.27909         0.45101
H         17.22817         0.25421         0.14902
H         15.91962        20.25851         0.43644
H         19.76656         0.25692         0.31073
H         18.35548        20.23006         0.24763
H         22.19207         0.24131         0.54818
H         20.79294        20.23490         0.05866
H         24.64501         0.22636         0.63001
H         23.27912        20.20423        -0.27086
H         27.09111         0.23110         0.42226
H         25.71048        20.18027        -0.55141
H         29.58516         0.22535         0.29464
H         27.98963        20.13494        -1.20341
H         32.07191         0.28171         0.37997
H         30.81910        20.39189        -0.97696
H         34.51673         0.40005         0.51446
H         32.99686        20.35418         0.25821
H         36.78404         0.70052         1.19514
H         35.83452        20.23373         0.17016
H         39.59970         0.49373         1.08190
H         38.05834        20.31522        -0.55277
H         41.55575         1.75449         0.42828
H         42.77325         3.60745        -0.48216
H         42.85080         6.05579        -0.46100
H         42.73322         8.19101         0.10934
H         42.72991        10.57379        -0.36618
H         42.77779        12.39339        -1.09982
H         42.73781        14.81876        -1.20027
H         42.71118        16.72645        -1.25839
H         40.48535        20.38681        -0.81465
H         42.65648        19.17773        -1.05518
