         260
 CSIRO Nanostructure Databank - Neutral Graphene Oxide Data Set
C         30.75327        31.54284        -1.88446
C         30.89068        32.76571        -2.04876
C         30.85218        35.97184        -2.73996
C         31.09332        37.21232        -2.55595
C         30.83203        40.39802        -1.73713
C         30.74795        41.60115        -1.44841
C         32.82504        28.73122        -0.75234
C         31.92293        29.32597        -1.34116
C         33.28383        31.46135        -1.58965
C         31.77055        30.51915        -2.18468
C         33.34163        33.05737        -1.79824
C         31.93636        33.71946        -2.08311
C         33.29841        36.00323        -1.32108
C         31.89820        34.97511        -2.65015
C         32.61879        37.12182        -0.84851
C         31.73924        37.98839        -1.57262
C         32.84915        40.13760        -0.36182
C         32.02888        39.48513        -1.56295
C         32.51991        41.43507         0.05282
C         31.57135        42.34744        -0.54250
C         33.02214        44.23764        -0.07956
C         31.90805        43.68907        -0.32327
C         35.32320        27.14562         0.99411
C         35.22935        28.50294         0.39774
C         34.17071        29.19679        -0.39712
C         35.10143        31.50840         0.24033
C         34.24319        30.71528        -0.70004
C         35.10345        33.00931         0.18592
C         34.19109        33.79519        -0.70648
C         35.11592        35.85198         0.51633
C         34.17621        35.16309        -0.52424
C         35.29605        37.35594         0.30786
C         34.20632        38.17175         0.24235
C         35.38238        40.29830         0.23945
C         34.14055        39.59737         0.03438
C         35.53119        41.68104         0.46660
C         34.41025        42.52806         0.61448
C         35.58218        44.37929        -0.53106
C         34.35546        43.86274         0.13655
C         35.91456        45.76189        -0.87575
C         37.69885        27.12410         1.67711
C         36.39872        26.58972         1.26543
C         37.65365        28.66008         1.44719
C         36.32609        29.32461         1.07929
C         37.58748        31.49601         0.76846
C         36.26693        30.80546         0.92430
C         37.60323        32.96479         1.01919
C         36.33406        33.71485         0.73791
C         37.61211        35.88534         1.09136
C         36.48401        35.17134         0.35013
C         37.80359        37.30707         0.72564
C         36.62242        37.99081         0.13059
C         37.95396        40.17880         0.24750
C         36.63670        39.51491         0.05267
C         38.07635        41.51521         0.43985
C         36.86214        42.39848         0.57863
C         38.25168        44.22194        -0.63591
C         36.89684        43.59285        -0.37610
C         38.35431        45.65981        -1.15024
C         37.01099        46.25035        -1.15881
C         40.37177        24.52045         1.73315
C         39.25103        25.08638         1.53959
C         40.20653        27.25401         1.60230
C         39.01394        26.48351         1.58416
C         40.15019        28.66317         1.33819
C         38.93670        29.32026         1.15144
C         40.14109        31.54707         0.73061
C         38.87332        30.74809         0.75631
C         40.10454        33.00982         0.98440
C         38.91776        33.66403         1.10804
C         40.15004        35.84730         1.67045
C         38.85873        35.10510         1.45569
C         40.14968        37.39064         1.63432
C         38.99020        37.97438         0.90756
C         40.41517        40.48794         2.14668
C         39.15658        39.28404         0.20968
C         40.44344        41.71600         1.52773
C         39.38756        42.22668         0.59941
C         40.48103        44.62886         0.62706
C         39.47304        43.61657         0.04615
C         40.81438        45.70136        -0.40964
C         39.63602        46.38340        -1.04142
C         41.10563        48.27003        -1.52800
C         40.04929        47.53356        -1.63890
C         42.94715        24.63676         1.73404
C         41.63183        25.06643         1.84470
C         42.69658        27.28371         1.03113
C         41.59371        26.65928         1.91954
C         42.67107        28.66602         0.78439
C         41.48630        29.41780         1.42347
C         42.68198        31.62895         0.82400
C         41.42537        30.82904         0.87299
C         42.65721        32.98164         0.89447
C         41.40960        33.66069         1.45870
C         42.66777        35.89445         1.30631
C         41.38394        35.16203         1.32200
C         42.74601        37.34871         1.66864
C         41.47409        38.13423         1.91885
C         42.96579        40.31520         2.26342
C         41.61898        39.61001         2.26127
C         42.95146        41.81361         2.09272
C         41.68318        42.52813         1.69195
C         43.05686        44.69332         1.23509
C         41.73459        43.96263         1.25359
C         43.05520        46.04951         0.84576
C         42.11655        46.50467        -0.20933
C         43.29776        48.59924        -0.17943
C         42.17565        47.92578        -0.74870
C         43.98325        25.16760         1.25047
C         45.15472        27.28868         0.29770
C         43.90685        26.50538         0.64504
C         45.10317        28.80025         0.20576
C         43.75715        29.40371         0.24402
C         44.86497        31.65408        -0.56593
C         43.72133        30.88674         0.05726
C         44.98011        33.12622        -0.25723
C         43.73041        33.78884         0.24529
C         44.91253        36.10962        -0.02346
C         43.71495        35.28591         0.41307
C         44.84326        37.63262         0.23459
C         44.06090        38.09727         1.46851
C         45.57333        40.27837         1.61362
C         44.22311        39.52728         1.92185
C         45.55479        41.80649         1.82127
C         44.25583        42.59283         2.00469
C         45.50976        44.77823         1.80675
C         44.21897        44.05529         1.75387
C         45.44602        46.31185         1.55199
C         44.07374        46.97881         1.52748
C         44.05869        48.24770         0.72808
C         47.50877        27.46159        -0.03489
C         46.55160        26.85935         0.45610
C         47.57659        28.76191        -0.70309
C         46.29619        29.54540        -0.37278
C         47.34395        31.71141        -1.33999
C         46.05360        30.85671        -1.17636
C         47.20452        33.24961        -1.39457
C         46.09706        33.85573        -0.55154
C         47.38661        36.10627        -0.71433
C         46.12436        35.35951        -0.51898
C         47.47368        37.47865        -0.05968
C         46.19733        38.36927        -0.05448
C         47.64499        40.63652         0.05724
C         46.35246        39.81620         0.35803
C         48.07921        41.69114         1.08987
C         46.87118        42.52265         1.57940
C         47.96068        44.77637         0.94345
C         46.82790        44.03652         1.58014
C         47.59830        46.08437         0.72363
C         46.49440        46.73850         0.61885
C         50.18720        29.15805        -0.77866
C         48.79700        29.52175        -1.07768
C         49.89501        31.92602        -0.96162
C         48.69966        31.05076        -1.24705
C         49.74839        33.33592        -1.43510
C         48.53923        33.99113        -1.34019
C         49.66039        36.19473        -1.63821
C         48.51032        35.45965        -1.28422
C         49.95300        37.57784        -1.08968
C         48.77799        38.26539        -0.36525
C         50.00641        40.54271        -0.81370
C         48.86045        39.76109        -0.23061
C         50.19537        41.90677        -0.44512
C         49.25020        42.54815         0.52954
C         50.23491        44.68939        -0.21523
C         49.22710        44.10825         0.66766
C         51.20240        29.85974        -0.78687
C         52.31398        32.22076        -1.23357
C         51.29705        31.31508        -0.70099
C         52.15189        33.29345        -1.82116
C         50.91542        34.03378        -2.05928
C         51.85010        36.49834        -2.61297
C         50.78581        35.52524        -2.31881
C         51.68018        37.71054        -2.76064
C         50.52213        38.51498        -2.24078
C         51.84837        40.73632        -2.22187
C         50.84909        39.88626        -1.74050
C         52.06524        41.94768        -1.93143
C         51.23907        42.68643        -1.07392
C         51.17990        44.07746        -0.74074
O         41.95637        45.45967        -1.25220
O         44.60134        38.38928         2.76451
O         33.16984        35.62436        -2.66883
O         48.10739        31.34615        -2.53607
O         45.76909        45.79598         2.85140
O         50.51632        31.83892         0.37995
O         40.86780        31.03541        -0.46625
O         44.39258        26.63623        -0.71509
O         49.25308        38.89516         0.87366
O         35.28993        28.52356        -1.04115
O         40.23354        39.59860        -0.27904
O         36.05763        43.45146        -1.54783
O         43.66412        31.36265        -1.35442
O         50.53985        34.55433        -3.35061
O         42.91783        41.19210         3.42173
O         43.08138        34.67373        -0.74706
O         46.06847        29.57296         1.05237
O         41.81082        29.49120         2.78639
O         38.45364        44.52728        -2.04941
O         36.73675        38.66836        -1.16186
O         38.14482        31.05604        -0.51029
O         33.24002        41.95298         1.15468
O         47.26514        43.28880         2.75695
O         40.03917        42.51979        -0.71023
O         45.08974        42.18272         3.13612
O         48.04022        28.79571        -2.05812
O         37.85602        35.48265         2.44810
O         36.66749        33.34262         2.08156
O         45.84509        39.45859        -0.96347
O         34.48515        30.89713        -2.14431
O         43.03585        36.30510         2.67462
O         45.10999        35.92906        -1.45925
O         35.88774        30.18432         2.17534
O         39.93123        36.67586         2.88199
O         32.95180        37.56078         0.45122
O         49.84743        43.25961         1.65936
O         34.33072        32.28241         1.20496
O         37.59880        28.04731         2.77555
O         41.42712        43.63987         2.65688
O         41.47273        38.62466         3.30848
O         43.62659        47.19475         2.85174
H         44.31930        46.87756         3.47652
O         39.27004        39.90744         2.58846
H         39.53982        39.14965         3.16737
O         47.52493        37.10463         1.34943
H         47.95842        37.84435         1.84310
O         47.36815        41.42591        -1.11780
H         46.84751        40.86686        -1.74213
O         36.93429        42.99316         1.90859
H         36.90161        42.27805         2.57883
O         41.41085        33.42094         2.90299
H         41.93985        34.12041         3.34536
O         39.78321        45.33491         1.67083
H         40.01138        44.89887         2.52717
O         41.88558        26.93717         3.28450
H         41.88856        27.94714         3.38314
O         31.90667        30.28447        -3.52358
H         32.54391        29.55781        -3.67612
O         43.89662        38.07563        -0.77086
H         44.15852        37.67194        -1.63097
O         46.48363        39.81892         2.63201
H         46.15978        40.14556         3.50016
O         36.83410        35.16802        -1.05165
H         36.74601        36.07368        -1.41975
O         45.69064        30.43628        -2.48973
H         44.72429        30.60712        -2.60837
O         49.51636        38.60682        -3.24452
H         49.85744        39.13277        -3.99788
O         34.05934        33.23669        -3.01790
H         34.72651        32.51424        -3.08892
O         34.63447        35.59581         1.83361
H         33.78248        36.06842         1.94788
O         32.89308        39.69182        -2.68327
H         32.45761        39.35359        -3.49442
O         51.00846        37.38066        -0.13809
H         50.85080        37.99117         0.62169
O         46.75872        33.53653        -2.74743
H         47.24449        32.93111        -3.35347
O         48.62217        41.03308         2.23117
H         48.89774        41.73506         2.86272
