         621
 CSIRO Nanostructure Databank - Neutral Graphene Oxide Data Set
C          5.71728        31.88847        -0.30104
C          5.91003        33.23174        -0.10243
C          8.37543        27.62320        -0.39195
C          8.30473        28.99532        -0.17234
C          6.98270        29.64070        -0.18835
C          8.63434        32.01131        -0.03004
C          6.80597        30.95555        -0.52647
C          8.38372        33.25673         0.48813
C          7.13510        33.95504         0.23343
C          8.19867        36.07093         0.97332
C          7.06210        35.31719         0.51466
C          8.24970        37.45697         0.94779
C         10.75728        23.18955        -0.26238
C         10.70477        24.63406         0.15552
C          9.55142        25.45131        -0.38104
C         10.70295        27.43370         0.58914
C          9.53765        26.79906        -0.15078
C         10.76607        28.92569         0.35070
C          9.50251        29.71309         0.25814
C         10.70014        31.68060         1.27812
C          9.59666        31.08070         0.48258
C         10.72864        33.15637         1.41298
C          9.34759        33.80460         1.51580
C         10.70757        36.04016         1.46323
C          9.37265        35.32489         1.48181
C         10.69979        37.46095         1.13882
C          9.49462        38.18109         1.07630
C         10.77907        40.33866         1.02735
C          9.56766        39.59856         0.95419
C         10.68361        41.76685         0.89236
C         12.99938        18.84346        -0.46812
C         13.09080        20.25811        -0.70271
C         11.96055        21.04196        -0.51933
C         13.21341        23.13756        -0.16793
C         11.96790        22.47799        -0.32889
C         13.23950        24.55851         0.33166
C         12.03263        25.34892        -0.19887
C         13.23006        27.41514         0.53616
C         12.04523        26.77503         0.30276
C         13.26819        28.80592         0.97240
C         12.04697        29.59692         0.71837
C         13.25836        31.64881         1.61597
C         11.99049        30.93868         1.35712
C         13.21724        33.09306         1.72877
C         11.93021        33.81032         1.58283
C         13.16666        35.92347         1.34380
C         11.97057        35.26706         1.46622
C         13.24243        37.33353         0.91410
C         11.95341        38.14811         0.83602
C         13.32325        40.18553         0.88000
C         12.03429        39.60871         0.98969
C         13.53689        41.54422         1.22029
C         11.72359        42.65098         1.22404
C         13.36080        44.50812         0.83577
C         12.02585        43.95625         0.81675
C         13.46414        45.91436         0.85049
C         15.82687        14.79025        -0.66503
C         15.74493        16.16992        -0.89704
C         14.51542        16.77544        -0.42231
C         15.78046        19.04985        -1.74350
C         13.99725        17.96093        -0.92501
C         15.69170        20.35625        -1.33522
C         14.44708        20.93451        -0.73941
C         15.71160        23.20292        -0.50955
C         14.47305        22.41497        -0.36693
C         15.70814        24.55408        -0.09916
C         14.52997        25.27244         0.08438
C         15.61811        27.17754         1.25064
C         14.56965        26.78610         0.19669
C         15.67024        28.68883         1.56432
C         14.40731        29.45809         1.40685
C         15.68501        31.56476         2.08020
C         14.42679        30.89477         1.66678
C         15.64587        33.07571         2.26324
C         14.39575        33.79810         1.94603
C         15.69162        36.05820         1.81098
C         14.40116        35.27398         1.83311
C         15.74327        37.37664         1.11789
C         14.52932        38.05290         0.91726
C         15.75466        40.09522         0.24879
C         14.53967        39.43116         0.60745
C         15.65356        41.54179         0.06844
C         14.60072        42.29553         0.67864
C         15.76293        44.41779         0.19008
C         14.57380        43.73341         0.62882
C         15.81074        45.83149         0.21056
C         14.68465        46.59141         0.63252
C         15.97235        48.70656         0.52498
C         14.77460        48.01382         0.75665
C         16.08659        50.11343         0.70734
C         18.17301        10.36964        -0.44455
C         18.08758        11.76369        -0.91718
C         16.93865        12.61018        -0.66853
C         18.19815        14.66000        -1.30114
C         16.97310        13.98306        -0.91999
C         18.11287        16.07322        -1.71785
C         16.89921        16.86357        -1.47273
C         18.23372        18.97400        -1.80805
C         16.99367        18.25843        -1.73210
C         18.18532        20.46139        -1.91229
C         16.89316        21.19008        -1.59513
C         18.16983        23.44795        -1.20653
C         16.88763        22.65547        -1.20728
C         18.23014        24.70564        -0.46721
C         17.00868        25.20884         0.18082
C         18.18077        27.39546         0.60091
C         16.98254        26.54547         0.86416
C         18.17210        28.82543         1.03349
C         16.95954        29.46310         1.62587
C         18.18532        31.67769         1.64969
C         16.99502        30.95273         1.73041
C         18.23573        33.09985         2.03409
C         16.96673        33.79931         2.28526
C         18.22999        35.95606         1.70718
C         16.97524        35.33222         2.08341
C         18.20192        37.20517         0.90911
C         16.95464        37.99273         0.72786
C         18.30111        39.89240        -0.15233
C         16.98141        39.32418         0.20154
C         18.43773        41.18630        -0.80214
C         16.59906        42.30385        -0.64660
C         18.10877        44.27887        -0.88555
C         16.83363        43.66492        -0.42814
C         18.19672        45.77740        -0.74720
C         17.00668        46.54991        -0.26316
C         18.32508        48.64336        -0.17254
C         17.14391        47.98035         0.09454
C         18.40948        50.07235        -0.12480
C         17.25582        50.80728         0.37163
C         18.43583        52.92652         0.03069
C         17.35151        52.21845         0.54716
C         18.55894        54.33334         0.13198
C         20.65252         6.18219         0.28969
C         20.59480         7.54478        -0.05861
C         19.40297         8.26890        -0.08454
C         20.64917        10.37618        -0.50750
C         19.36748         9.67042        -0.41001
C         20.61614        11.85521        -0.54752
C         19.42037        12.53474        -1.10307
C         20.68768        14.70982        -1.27561
C         19.41483        14.00498        -1.19119
C         20.70762        16.08999        -1.58341
C         19.49585        16.84061        -1.92956
C         20.71540        19.05028        -1.73883
C         19.48585        18.32426        -1.83773
C         20.74762        20.46280        -1.55635
C         19.50030        21.23239        -1.79113
C         20.74481        23.33841        -1.00769
C         19.50640        22.71140        -1.48721
C         20.72492        24.74807        -0.65879
C         19.44896        25.40489        -0.32546
C         20.63407        27.52992         0.18374
C         19.44403        26.70061         0.24868
C         20.70174        28.79306         0.97321
C         19.45882        29.50245         1.36721
C         20.61131        31.58638         0.86974
C         19.43748        30.98834         1.31947
C         20.76684        33.27766         2.56601
C         19.40860        33.86776         2.23412
C         20.71643        36.06496         2.23148
C         19.40985        35.29346         2.04450
C         20.66881        37.45328         1.56878
C         19.51256        37.89323         0.72679
C         20.78170        39.91217        -0.07762
C         19.48821        39.28538         0.23999
C         20.80395        41.39386        -0.43716
C         19.50646        42.04886        -0.64451
C         20.75476        44.25082        -0.85980
C         19.46460        43.49761        -0.98004
C         20.79194        45.65720        -0.89560
C         19.54676        46.40771        -0.56454
C         20.79089        48.63623        -0.77629
C         19.58296        47.89999        -0.37743
C         20.77096        50.01413        -0.97689
C         19.55027        50.72046        -0.60608
C         20.61304        52.92142        -1.31631
C         19.43905        52.17948        -0.76091
C         20.69293        54.37665        -1.07547
C         19.64148        55.04111        -0.41061
C         20.92890        57.22612        -0.70849
C         19.63299        56.55348        -0.30787
C         21.09916        58.57810        -0.49888
C         23.02785         3.32471         0.60697
C         21.84481         4.04277         0.56359
C         23.13452         6.10623         0.17050
C         21.86928         5.44038         0.32205
C         23.08966         7.54379         0.02694
C         21.86652         8.20928        -0.54791
C         23.10723        10.44044        -0.22713
C         21.84990         9.71691        -0.35962
C         23.17188        11.86308        -0.45919
C         21.91482        12.62929        -0.59739
C         23.19783        14.64433        -1.36980
C         21.90429        13.99711        -1.11522
C         23.25179        16.10549        -1.38024
C         21.99115        16.78794        -1.72704
C         23.29357        18.99642        -1.65333
C         21.98369        18.29851        -1.88539
C         23.24425        20.48030        -1.36321
C         21.94024        21.17590        -1.28245
C         23.20154        23.25455        -0.72689
C         21.94347        22.58410        -1.00136
C         23.23531        24.76654        -0.81207
C         21.92520        25.42737        -0.49130
C         23.19709        27.49121         0.28234
C         21.96512        26.86635        -0.20383
C         23.18395        28.77075         0.98697
C         21.95354        29.57684         0.96488
C         23.13188        31.69453         1.55009
C         21.92018        30.93924         1.07886
C         23.15794        33.18300         1.60038
C         21.97285        33.90547         1.89992
C         23.19954        35.98860         1.64589
C         21.96852        35.30447         1.79656
C         23.23452        37.48452         1.92659
C         21.96474        38.16966         1.40984
C         23.30611        40.09072         0.42308
C         22.06288        39.27633         0.40710
C         23.23042        41.59887         0.39043
C         22.02210        42.19299        -0.28629
C         23.25340        44.28092        -0.60062
C         21.99347        43.55528        -0.57674
C         23.25790        45.68657        -0.89376
C         22.01948        46.37850        -0.89814
C         23.28634        48.62796        -1.17923
C         22.03762        47.86532        -0.81305
C         23.18939        50.03971        -1.65704
C         21.95580        50.72695        -1.50470
C         22.69053        52.92925        -2.49198
C         21.81603        52.15423        -1.74433
C         22.75300        54.36027        -2.39147
C         21.80172        55.08920        -1.61666
C         23.08710        57.19597        -1.91097
C         21.94479        56.50127        -1.40916
C         23.36218        58.55840        -1.52281
C         22.31478        59.25488        -0.84407
C         23.70542        61.24084        -0.65982
C         22.48423        60.60903        -0.46499
C         24.25760         3.96822         0.38350
C         25.73914         5.85915        -0.23511
C         24.34504         5.34876         0.16929
C         26.02573         7.29856         0.12396
C         24.13810         8.34199         0.41373
C         25.60935        10.35562         0.20209
C         24.27113         9.72425         0.08287
C         25.62861        11.86918        -0.05044
C         24.38421        12.52413        -0.47665
C         25.69812        14.66827        -0.74748
C         24.48401        13.88928        -1.02097
C         25.68777        16.07409        -0.78224
C         24.44395        16.80594        -1.10117
C         25.56784        18.95203        -0.56826
C         24.45172        18.22324        -1.16461
C         25.63314        20.42832        -0.63535
C         24.44886        21.13177        -0.81189
C         25.65499        23.20709        -0.24000
C         24.38725        22.54946        -0.62268
C         25.65803        24.67580         0.01115
C         24.40872        25.42420        -0.13193
C         25.67996        27.48840         0.42319
C         24.41405        26.77275         0.23548
C         25.71653        28.85943         0.73327
C         24.50373        29.48857         1.25271
C         25.73161        31.73381         1.42504
C         24.46883        30.96009         1.56329
C         25.68070        33.13447         1.53603
C         24.41083        33.85853         1.57028
C         25.66770        36.02465         2.06912
C         24.41102        35.27984         1.65860
C         25.71013        37.47395         1.61072
C         24.50132        38.16381         1.44238
C         25.73952        40.22109         0.87022
C         24.52755        39.51181         1.03412
C         25.75230        41.58187         0.34703
C         24.53999        42.24275         0.01556
C         25.73367        44.28466        -0.72812
C         24.47651        43.58862        -0.41682
C         25.72391        45.75438        -0.87520
C         24.49896        46.40283        -1.04620
C         25.75517        48.56236        -1.41676
C         24.47287        47.79994        -1.63869
C         25.72951        49.95751        -1.67004
C         24.47877        50.63048        -2.01470
C         25.80563        52.69244        -2.56454
C         24.62630        51.86950        -2.65567
C         25.85272        54.04338        -2.97431
C         23.78906        55.09798        -3.00486
C         25.97792        57.30575        -2.64393
C         23.90839        56.46452        -2.80908
C         25.89247        58.49157        -1.91855
C         24.65810        59.19159        -1.62904
C         24.78644        60.52370        -1.17908
C         26.87177         8.19178        -0.44890
C         28.03105        10.34988        -0.32215
C         26.87302         9.62917        -0.13095
C         28.09693        11.79583        -0.34369
C         26.90175        12.53719        -0.36061
C         28.16215        14.63437        -0.53873
C         26.91781        13.94784        -0.52611
C         28.16496        16.07545        -0.45138
C         26.90806        16.75936        -0.50385
C         28.09873        18.95327         0.04203
C         26.82897        18.18732        -0.19069
C         28.11871        20.38305        -0.33469
C         26.91847        21.09646        -0.51380
C         28.11320        23.28307        -0.57055
C         26.93113        22.52937        -0.53163
C         28.09935        24.70557        -0.44580
C         26.91894        25.42394        -0.12443
C         28.09787        27.62615        -0.11051
C         26.88386        26.81300         0.05728
C         28.13264        28.98581         0.44410
C         26.94840        29.62116         0.77133
C         28.20080        31.72288         1.13473
C         26.96059        31.03195         1.15482
C         28.23596        33.13434         1.66425
C         26.92250        33.89499         1.54813
C         28.16544        36.04074         1.52421
C         26.92017        35.25419         1.72302
C         28.15855        37.48627         1.90787
C         26.91575        38.19464         1.54292
C         28.21966        40.28479         1.16452
C         26.95456        39.56792         1.21036
C         28.21747        41.65023         0.66287
C         27.01702        42.24297         0.21869
C         28.24109        44.42042        -0.29373
C         27.03815        43.58102        -0.41916
C         28.22284        45.78789        -0.54158
C         26.96879        46.47155        -0.86122
C         28.21867        48.60937        -1.08609
C         26.94063        47.86747        -1.09670
C         28.23047        50.06864        -1.37534
C         26.93793        50.72333        -1.65799
C         28.16822        52.87265        -1.79961
C         26.96302        52.08594        -1.96853
C         28.10610        54.25185        -2.07074
C         26.95365        54.90522        -2.59054
C         26.99348        56.33460        -2.48673
C         29.32869        12.49518        -0.47901
C         30.69962        14.59162        -0.68431
C         29.37049        13.88566        -0.53585
C         30.66084        16.08465        -0.39519
C         29.39736        16.75226        -0.23318
C         30.69160        18.95085         0.13038
C         29.39319        18.18984         0.11422
C         30.68966        20.38718        -0.18630
C         29.40366        21.02958        -0.56787
C         30.62309        23.24650        -0.30995
C         29.40452        22.57799        -0.72420
C         30.64331        24.68060        -0.51014
C         29.34327        25.44761        -0.65721
C         30.67110        27.61006        -0.21802
C         29.37110        26.93238        -0.46374
C         30.66428        28.99021         0.12296
C         29.45796        29.58319         0.80798
C         30.67115        31.78341         0.81953
C         29.42944        31.08366         0.85864
C         30.66451        33.23221         0.97814
C         29.47869        33.88310         1.23344
C         30.74430        36.07062         1.38955
C         29.45728        35.35598         1.24327
C         30.74101        37.46567         1.87514
C         29.44764        38.24505         1.96088
C         30.66320        40.44805         1.57252
C         29.40988        39.67156         1.54505
C         30.67581        41.80015         0.98438
C         29.47793        42.35190         0.53873
C         30.77390        44.52322         0.06752
C         29.49852        43.69823        -0.06864
C         30.64607        45.98395         0.05671
C         29.44088        46.55884        -0.30026
C         30.58122        48.87936        -0.07127
C         29.33692        48.02844        -0.29100
C         30.55758        50.28522        -0.51007
C         29.40999        50.89489        -0.99291
C         29.33972        52.28282        -1.27354
C         31.86914        16.75366        -0.38088
C         33.18912        18.98639        -0.42372
C         32.00872        18.19149        -0.08452
C         33.17269        20.38116        -0.27820
C         31.88469        21.06589        -0.22846
C         33.06740        23.16696         0.43433
C         31.95194        22.55579        -0.45864
C         33.04431        24.70628         0.41966
C         31.82448        25.43680        -0.03183
C         33.17819        27.57694        -0.37261
C         31.85835        26.88841        -0.26631
C         33.10926        29.00179         0.11775
C         31.89971        29.69196         0.25135
C         33.12446        31.84910         0.45896
C         31.89072        31.11257         0.56746
C         33.08204        33.30082         0.50420
C         31.91107        33.97590         0.81030
C         33.17728        36.15855         0.99216
C         31.92277        35.41443         1.08076
C         33.19162        37.54368         1.18694
C         32.04577        38.23426         1.78399
C         33.22867        40.45909         1.33311
C         32.00053        39.73631         1.73532
C         33.18477        41.87119         1.20600
C         31.93126        42.53272         0.97546
C         33.15181        44.68389         0.78264
C         31.95211        43.90099         0.67180
C         33.07209        46.08958         0.59335
C         31.85100        46.76949         0.31036
C         31.82833        48.15811         0.15384
C         34.36479        21.17539        -0.33413
C         35.55402        23.30808         0.11744
C         34.39479        22.55800         0.01309
C         35.53728        24.64890         0.84016
C         34.32667        25.45878         0.41124
C         35.70144        27.47455        -0.14261
C         34.37645        26.77743         0.10721
C         35.65834        28.93075         0.36949
C         34.36009        29.69870         0.38174
C         35.59754        31.84056        -0.02364
C         34.33997        31.16765         0.33510
C         35.63630        33.33868         0.03500
C         34.33210        34.05960         0.26984
C         35.64723        36.12095         0.68276
C         34.39149        35.47409         0.66382
C         35.68326        37.59005         0.61120
C         34.37193        38.32960         0.82449
C         35.67501        40.47057         1.01938
C         34.42429        39.77147         1.11825
C         35.64781        41.88047         1.08964
C         34.42149        42.59742         1.10037
C         34.37664        44.01190         0.99514
C         36.82127        25.44414         0.81538
C         38.09578        27.55123         0.67185
C         36.90018        26.77718         0.49761
C         38.12419        28.95802         0.53701
C         36.92857        29.66426         0.29787
C         38.22193        31.88336        -0.01676
C         36.91745        31.08542        -0.04922
C         38.06257        33.25866         0.61834
C         36.89978        33.98916         0.47481
C         38.12128        36.12724         0.91306
C         36.86898        35.41026         0.71375
C         38.12052        37.56485         0.96610
C         36.94523        38.32200         0.85334
C         36.89961        39.72904         0.95182
C         39.34848        29.73596         0.69765
C         40.59638        31.87238         0.76480
C         39.38292        31.09196         0.55325
C         40.55168        33.19768         1.00978
C         39.25144        33.90591         1.29086
C         39.28810        35.39525         1.08820
O         34.98495        29.10379         1.65345
O         28.60909        49.07552        -2.42394
O         34.92805        33.91548        -1.09448
O         29.50875        21.68658        -1.88893
O         18.76989        11.90793        -2.22670
O         18.88735        20.95090        -3.08621
O         11.05665        30.94528         2.49942
O          9.92015        35.83006         2.72927
O         20.20035        28.73474         2.36853
O         34.90196        38.07455        -0.52885
O         20.89848        32.42581         3.42425
O         25.19135         7.77389         1.15565
O         29.54647        48.63667         1.00669
O         31.35973        40.35606         2.88003
O         28.62905        35.91402         0.11455
O         35.89653        27.46298        -1.53140
O         18.71448        16.30188        -3.02506
O         23.56385        19.96362        -2.72346
O         28.60761        27.60934        -1.52376
O         14.61921        18.39360        -2.11027
O         25.64801        11.30552         1.30884
O         16.38562        28.86263         2.83809
O         11.66618        29.42977        -0.70523
O         24.01831        13.98619        -2.41912
O         17.31891        46.40470        -1.73018
O         23.86480        28.68754         2.29058
O         26.49721        43.60193        -1.79179
O         31.50021        18.57010         1.26475
O         17.02973        34.72811         3.40051
O         17.25996        25.37432         1.66311
O         18.66218        43.83585        -2.15441
O         20.92794        40.31870        -1.46648
O         25.62548        23.71872         1.16111
O         19.44730        52.58542        -2.18622
O         23.71914        31.17664         2.79233
O         17.36047        41.61290        -1.58128
O          7.90990        31.58213        -1.14738
O         24.80175        54.49657        -3.78773
O         23.28081        37.51171         3.35318
O         23.55290        52.33255        -3.42396
O         36.15670        31.32688        -1.29129
O         30.42143        43.85447        -1.19987
O         21.09294        12.51056         0.66352
O         31.60007        37.65527         3.04902
O         14.85804        36.05467         3.01348
O         22.99779        39.20875        -0.71291
O         12.68214        42.11588         2.13769
O         19.02713        36.98573        -0.31805
O         22.04175        17.45441        -3.06969
O         21.19952        27.69794        -1.15597
O         12.57841        37.57314        -0.38262
O         32.07705        25.18599         1.42791
O         28.65561        18.56525         1.34485
O         15.56546        32.16587         3.40824
O         30.12513        25.06801        -1.83764
O         18.83213        23.50668        -2.50360
O         21.03167        38.54575         2.46967
O         14.74085        21.33343         0.65167
O         24.92181        57.07446        -3.54501
O         19.75790        46.96658         0.78368
O         17.94366        28.51079        -0.37590
O         22.98355        48.39984         0.22223
O         16.53200        22.21866        -2.57906
O         25.82134        18.48577         0.83054
O         28.71106        37.88543         3.19258
O         39.03351        33.71588         2.74998
H         38.29640        34.30621         3.01637
O         31.19057        14.37888        -2.02453
H         30.51077        14.69520        -2.65436
O         21.91362         7.99160        -1.99844
H         21.07232         8.32631        -2.37629
O         12.17337        25.36697        -1.64052
H         11.38456        25.81303        -2.01696
O         32.86796        22.76865         1.80750
H         32.22122        23.40143         2.20062
O         23.02331        41.92355         1.82053
H         23.08434        42.89732         1.92349
O         10.53034        24.61228         1.61207
H         11.40162        24.33929         2.00401
O         33.36571        27.83981        -1.80797
H         34.36749        27.76028        -1.99250
O         32.37180        22.79680        -1.83203
H         31.60864        22.58352        -2.41476
O         35.34946        24.29417         2.24843
H         34.54287        23.72566         2.31679
O         24.30272        47.62995        -3.07881
H         25.08803        47.15657        -3.42666
O         26.75552         5.02356         0.33946
H         26.75944         5.17062         1.30789
O         28.40118        32.95224         3.12542
H         28.00689        33.72611         3.58439
O         15.01460        27.32943        -1.06615
H         14.35743        27.08695        -1.75278
O         13.14716        24.49298         1.80870
H         13.83845        25.09295         2.19173
O         20.87599        36.24949         3.64754
H         21.71420        36.79603         3.76694
O         38.60181        32.16889        -1.39055
H         37.77018        32.16202        -1.92304
O         19.23948        56.96365         1.00960
H         19.93330        56.68225         1.64015
O         15.15068        26.54245         2.45644
H         15.69463        26.88350         3.20235
O         20.61824        32.72672         0.12918
H         19.70470        33.05197        -0.00752
O          8.84198        33.41936         2.81997
H          9.30146        33.98464         3.48129
O         23.46776        25.03717        -2.25390
H         22.64926        24.79606        -2.73994
O         10.43118        27.29174         2.00707
H         10.31524        26.31865         2.17202
O         29.65353        29.15133         2.22785
H         29.18764        29.79692         2.80433
O         25.59078        36.08820         3.52533
H         24.75320        36.61861         3.71967
H          4.68427        31.50626        -0.30277
H          4.99755        33.84651        -0.02270
H          7.46091        27.10384        -0.71953
H          6.12686        29.04467         0.16297
H          6.12382        35.85977         0.32287
H          7.35296        38.02401         0.65536
H          9.81017        22.63575        -0.35332
H          8.68683        24.95059        -0.84477
H          8.62677        40.16039         0.85643
H          9.75517        42.17223         0.46406
H         12.18823        18.47868         0.17996
H         10.98733        20.53423        -0.44122
H         11.22631        44.59518         0.41305
H         12.55862        46.50842         1.04283
H         14.93494        14.28325        -0.26715
H         13.97020        16.24047         0.36944
H         13.88010        48.57279         1.06872
H         15.21818        50.67503         1.08292
H         17.23507         9.84476        -0.20798
H         16.06010        12.17632        -0.16827
H         16.53461        52.75558         1.05153
H         17.77626        54.89743         0.66035
H         19.71710         5.66133         0.54724
H         18.45672         7.76551         0.16558
H         18.82764        56.93181        -0.99875
H         20.30746        59.14875         0.00871
H         23.00975         2.24077         0.78577
H         20.87857         3.53707         0.70190
H         23.84095        62.28753        -0.35461
H         21.65104        61.14033         0.01618
H         25.18289         3.37451         0.36590
H         25.83113         5.74170        -1.34903
H         26.79548        58.85964        -1.40597
H         25.77165        61.00737        -1.24376
H         27.60160         7.84082        -1.19404
H         28.95868         9.80234        -0.54880
H         28.98802        54.86658        -1.83643
H         27.87959        56.70649        -1.94420
H         30.26908        11.92507        -0.49981
H         31.45004        14.11427        -0.00295
H         31.47332        50.88241        -0.38240
H         30.21539        52.91780        -1.07382
H         32.78336        16.18602        -0.61256
H         34.11853        18.47187        -0.71058
H         33.99057        46.68732         0.69134
H         32.77378        48.72046         0.16408
H         35.32053        20.66549        -0.53480
H         36.52107        22.85290        -0.14992
H         36.59315        42.44116         1.04640
H         35.31583        44.58441         0.99034
H         37.68724        24.96448         1.30273
H         39.04126        27.02364         0.87576
H         39.07811        38.07914         1.13730
H         37.84691        40.28383         1.02817
H         40.25651        29.20294         1.01906
H         41.56462        31.35034         0.71247
H         41.48277        33.76434         1.16101
H         40.23805        35.92252         1.26496
