         424
 CSIRO Nanostructure Databank - Neutral Graphene Oxide Data Set
C          1.27913         3.39521        -0.62709
C          0.09746         4.02917        -0.31264
C          1.24037         6.17861        -0.04344
C          0.07397         5.41361        -0.03173
C          1.22724         7.61660         0.20733
C          0.04223         8.30553         0.50504
C          1.19851        10.45174         0.59668
C          0.02852         9.69228         0.68497
C          1.17040        11.91936         0.61302
C         -0.05795        12.65978         0.64517
C          1.09742        14.81286         0.50134
C         -0.07973        14.04524         0.66163
C          1.13181        16.24696         0.50823
C         -0.05856        17.01401         0.48909
C          1.16955        19.11398         0.69413
C         -0.03890        18.40018         0.58209
C          1.20114        20.55259         0.94103
C         -0.03106        21.29567         1.24043
C          1.18423        23.40140         0.73543
C         -0.06336        22.63676         1.14642
C          1.11632        24.89459         1.10589
C         -0.04887        25.58719         0.46082
C          1.19968        27.68937         0.30483
C         -0.01259        26.90945         0.18437
C          1.20266        29.08704         0.07824
C         -0.03893        29.85160        -0.05714
C          1.21148        31.97660         0.25993
C         -0.06151        31.19680         0.01086
C          1.17565        33.44134        -0.14943
C         -0.00892        34.18113        -0.14468
C          1.19753        36.24855        -0.58177
C         -0.00603        35.56289        -0.37861
C          1.22839        37.68605        -0.75237
C          3.70661         3.49496        -1.00625
C          2.50506         4.12631        -0.65586
C          3.70195         6.25973        -0.32427
C          2.49324         5.53432        -0.33809
C          3.69587         7.68616        -0.06316
C          2.44911         8.35620         0.15223
C          3.67586        10.48232         0.36643
C          2.44367         9.76929         0.37014
C          3.66311        11.91458         0.82296
C          2.36688        12.61694         0.51478
C          3.66533        14.82424         0.35899
C          2.34345        14.06674         0.29516
C          3.62507        16.26787         0.61861
C          2.38842        16.95633         0.58434
C          3.64434        19.08280         0.72293
C          2.39990        18.38740         0.66359
C          3.64372        20.56816         0.45215
C          2.38841        21.23592         0.93201
C          3.70066        23.41159         1.06125
C          2.40522        22.68737         1.36286
C          3.66805        24.89358         1.13048
C          2.42342        25.62026         0.86093
C          3.68632        27.71469         0.39709
C          2.43760        26.98990         0.55824
C          3.66202        29.11834         0.09985
C          2.42345        29.79259        -0.00691
C          3.67906        31.97669        -0.25888
C          2.37192        31.24507        -0.42129
C          3.66597        33.38817        -0.35485
C          2.41130        34.11020        -0.37651
C          3.66876        36.21477        -0.71584
C          2.42236        35.51823        -0.57855
C          3.67494        37.66580        -0.92038
C          2.39959        38.35832        -0.90139
C          6.13519         3.57369        -1.38680
C          4.92760         4.20630        -1.03649
C          6.15081         6.30799        -0.63415
C          4.93835         5.60443        -0.65467
C          6.20833         7.66197         0.01615
C          4.90149         8.40996        -0.03373
C          6.15835        10.55800         0.16754
C          4.90056         9.81807         0.17546
C          6.15769        11.97030         0.35361
C          4.92383        12.68341         0.51834
C          6.12806        14.81848         0.74174
C          4.91546        14.07178         0.58478
C          6.07676        16.21989         0.90191
C          4.84733        16.95376         0.81867
C          6.11414        19.11328         0.94791
C          4.85149        18.38874         0.85770
C          6.08944        20.57262         0.94576
C          4.91411        21.27304         0.86338
C          6.16841        23.44212         0.75840
C          4.89280        22.73537         0.95237
C          6.18833        24.86888         0.53682
C          4.98673        25.63903         0.85488
C          6.14346        27.71545         0.15146
C          4.92325        27.04550         0.44104
C          6.12863        29.12830        -0.04608
C          4.89544        29.83171        -0.05912
C          6.13770        31.97309        -0.28846
C          4.89221        31.26489        -0.20595
C          6.14149        33.38875        -0.40178
C          4.89604        34.10490        -0.43021
C          6.14472        36.31542        -0.49460
C          4.87196        35.51800        -0.60663
C          6.13160        37.57479        -1.35739
C          4.84491        38.33718        -1.16205
C          8.57133         3.62287        -1.68317
C          7.35228         4.28319        -1.43002
C          8.54523         6.44637        -1.16276
C          7.36187         5.69815        -1.07636
C          8.57486         7.84244        -0.82229
C          7.40674         8.48234        -0.37257
C          8.59384        10.63356        -0.27820
C          7.37848         9.88810        -0.14559
C          8.59564        12.03699        -0.03551
C          7.37723        12.70811         0.27803
C          8.57660        14.84716         0.51769
C          7.38174        14.12230         0.57462
C          8.65155        16.21759         1.00128
C          7.30333        16.95749         1.20982
C          8.61132        19.10750         0.93757
C          7.30115        18.42582         1.12310
C          8.61976        20.58393         0.80165
C          7.37264        21.31983         1.23733
C          8.59736        23.33018         0.14140
C          7.34806        22.73230         0.72999
C          8.61762        24.83380         0.16273
C          7.38186        25.54393         0.20928
C          8.57811        27.68100        -0.18649
C          7.38154        26.99473         0.06944
C          8.59158        29.10126        -0.25328
C          7.36809        29.82591        -0.19866
C          8.59993        31.94123        -0.49028
C          7.36914        31.24845        -0.30792
C          8.58485        33.34898        -0.66101
C          7.39006        34.07374        -0.58257
C          8.57678        36.21744        -0.86503
C          7.40734        35.52171        -0.72685
C          8.58441        37.68314        -0.92354
C          7.39824        38.35976        -1.11223
C         11.01552         3.67511        -1.80632
C          9.79288         4.33011        -1.73581
C         11.03796         6.52449        -1.52379
C          9.73740         5.83688        -1.85261
C         11.03689         7.91364        -1.24801
C          9.80457         8.58892        -0.94453
C         11.04419        10.70958        -0.67516
C          9.80871         9.97299        -0.64216
C         11.03775        12.12874        -0.42609
C          9.81808        12.76902        -0.16672
C         11.08864        15.00564        -0.01024
C          9.77414        14.23169        -0.06141
C         11.08864        16.36971         0.56094
C          9.91171        16.98455         0.89140
C         11.14556        19.18090         1.04322
C          9.88851        18.41131         1.39094
C         11.13869        20.59158         0.93522
C          9.90460        21.32795         0.85927
C         11.11360        23.41463         0.41855
C          9.88948        22.68365         0.58140
C         11.07127        24.80119         0.08875
C          9.84604        25.49519        -0.01320
C         11.10458        27.68237        -0.17108
C          9.84332        26.92236        -0.51851
C         11.08047        29.10434        -0.18400
C          9.83973        29.81967        -0.32643
C         11.09908        31.94798        -0.50439
C          9.84230        31.22346        -0.45860
C         11.11796        33.33554        -0.79269
C          9.83117        34.03808        -1.16707
C         11.07864        36.24899        -1.28738
C          9.88779        35.49388        -0.68871
C         11.07047        37.70237        -0.84806
C          9.84457        38.36446        -0.78000
C         13.46855         3.68608        -1.65385
C         12.26060         4.37980        -1.72646
C         13.49899         6.52963        -1.50411
C         12.25117         5.82183        -1.59820
C         13.49834         7.95345        -1.46282
C         12.28093         8.63568        -1.23825
C         13.49102        10.78272        -0.91844
C         12.25357        10.04716        -0.95274
C         13.51877        12.16660        -0.55171
C         12.28891        12.86021        -0.35498
C         13.56524        14.90816         0.21978
C         12.33350        14.23414        -0.03614
C         13.54745        16.31383         0.57322
C         12.36850        17.03473         0.74307
C         13.59393        19.19091         1.00104
C         12.36797        18.47115         0.97531
C         13.60568        20.59712         0.86229
C         12.36963        21.30914         0.76877
C         13.59871        23.43892         0.40547
C         12.35515        22.71603         0.52846
C         13.59900        24.82842         0.16272
C         12.34125        25.50586        -0.32720
C         13.53805        27.71198         0.10043
C         12.31519        26.99750        -0.07894
C         13.51236        29.12134         0.16106
C         12.30144        29.82636        -0.04414
C         13.55129        31.96951        -0.25380
C         12.30701        31.25568        -0.22482
C         13.55121        33.34582        -0.61800
C         12.34328        34.05460        -0.85133
C         13.53386        36.23790        -0.87334
C         12.36816        35.50794        -0.99772
C         13.53653        37.69517        -0.76967
C         12.29694        38.37943        -0.70806
C         15.88078         3.61772        -1.08305
C         14.69281         4.36682        -1.40419
C         16.02625         6.47633        -1.19454
C         14.70119         5.77972        -1.37977
C         15.88818         7.95700        -0.75613
C         14.81626         8.68969        -1.66040
C         15.83064        10.97702        -1.36891
C         14.68502        10.16731        -1.32398
C         15.97780        12.20126        -0.71506
C         14.76241        12.85053        -0.35238
C         16.07511        14.90587         0.20811
C         14.79059        14.21375         0.08929
C         16.09345        16.27308         0.54154
C         14.83426        16.95040         0.91122
C         16.17456        19.18062         1.26307
C         14.84440        18.43734         1.21293
C         16.08562        20.63071         0.84346
C         14.85783        21.31686         0.77802
C         16.06056        23.46334         0.54594
C         14.84106        22.73783         0.57466
C         16.05805        24.88164         0.40174
C         14.80895        25.57517         0.22089
C         16.03045        27.73181         0.15176
C         14.79798        26.99629         0.16573
C         16.01401        29.13433         0.22987
C         14.75006        29.88741         0.57001
C         15.99675        32.03410         0.06019
C         14.77568        31.30670         0.04161
C         16.04314        33.37923        -0.25898
C         14.83582        34.03389        -0.75978
C         16.06437        36.29847        -0.55637
C         14.83440        35.55530        -0.88489
C         16.01870        37.73188        -0.59457
C         14.75342        38.38921        -0.69063
C         18.09660         3.50798         0.03770
C         16.97249         4.22103        -0.46987
C         18.11106         6.37067         0.35688
C         16.91615         5.68373        -0.24765
C         18.29960         7.81144         0.08042
C         17.31675         8.51610        -0.63386
C         18.68896        10.56857        -0.45620
C         17.68427         9.81055        -1.04263
C         18.63733        12.08706        -0.63761
C         17.29059        12.69359        -0.09764
C         18.53838        14.90666         0.06411
C         17.30835        14.21576        -0.02257
C         18.55822        16.32819         0.23577
C         17.31126        17.03894         0.46376
C         18.53896        19.20361         0.22123
C         17.30725        18.42817         0.60357
C         18.54695        20.63017         0.72126
C         17.31099        21.33221         0.78126
C         18.50761        23.48604         0.82107
C         17.30713        22.77501         0.72016
C         18.52041        24.89891         0.63017
C         17.28439        25.59567         0.40171
C         18.52707        27.70082         0.21056
C         17.29567        27.01441         0.19458
C         18.58074        29.13700        -0.05617
C         17.21949        29.90211         0.00557
C         18.54570        32.05212         0.05263
C         17.27306        31.33856         0.48550
C         18.54840        33.44880        -0.07931
C         17.25008        34.18371         0.14293
C         18.48827        36.33749        -0.28879
C         17.25913        35.61967        -0.32291
C         18.46110        37.76869        -0.37658
C         17.22416        38.44484        -0.47398
C         19.19268         4.14790         0.60419
C         20.47159         6.23751         1.05786
C         19.28768         5.55737         0.70054
C         20.57168         7.62281         0.98610
C         19.53275         8.43903         0.44733
C         20.77823        10.61657         0.79534
C         19.67132         9.86988         0.29494
C         20.83533        11.99327         0.64474
C         19.79509        12.75744         0.06920
C         20.99595        14.89571         0.35474
C         19.78930        14.17019         0.13248
C         21.00539        16.26448         0.43239
C         19.79503        17.02126         0.37332
C         20.98270        19.18146         0.71454
C         19.81623        18.44903         0.49315
C         20.96871        20.57573         0.87795
C         19.76662        21.30303         0.90567
C         21.00186        23.52479         0.99960
C         19.74304        22.76464         1.31721
C         20.98323        24.85990         0.78572
C         19.75067        25.60992         0.67373
C         20.92795        27.80364         0.73549
C         19.75379        27.03247         0.53313
C         20.93198        29.19634         0.63280
C         19.79439        29.89778         0.22460
C         20.96871        32.06134        -0.18788
C         19.77320        31.33743         0.02198
C         20.96153        33.44336        -0.30248
C         19.75699        34.17501        -0.21627
C         20.91910        36.39426        -0.19822
C         19.74194        35.64383        -0.22685
C         20.88928        37.80431        -0.23734
C         19.69258        38.48502        -0.33161
O          3.06852        14.47138        -0.94537
O          8.58614        19.74531        -0.39946
O         17.87860        29.61901        -1.25212
O         10.30495        14.92518        -1.25410
O          8.04607        16.39704         2.35086
O         15.01541        34.70446        -2.07410
O         16.89189         6.04959         1.16782
O         14.78470        17.46491         2.31261
O          4.48554        25.43281         2.23122
O         16.92944        10.43089        -2.05572
O          6.20324        36.76904         0.89458
H          6.22084        35.97395         1.46745
O          1.47486        31.95449         1.69043
H          0.75809        32.44946         2.13857
O          9.51735         6.09795        -3.29327
H         10.26250         5.68183        -3.77733
O         17.12905        34.27661         1.62753
H         17.85657        34.85932         1.93726
O         16.58260        19.24537         2.66993
H         16.19259        18.44899         3.10461
O          9.86177        26.80087        -1.98291
H         10.71504        26.35250        -2.21217
O          7.50618        21.40451         2.69609
H          6.73905        21.91107         3.03883
O         16.72868         6.45192        -2.46589
H         16.18766         6.99504        -3.09236
O         12.36589        25.38561        -1.81200
H         12.38078        24.42708        -2.02446
O          8.50888        22.98257        -1.30492
H          7.79218        23.52863        -1.69387
O          6.41653         7.36830         1.46323
H          5.67284         6.79468         1.74839
O          3.67336        11.83929         2.31282
H          2.97520        11.20096         2.57552
O          2.07158        31.26401        -1.85160
H          2.81499        30.83187        -2.32184
O         17.21962        12.23239         1.28539
H         16.42675        12.63244         1.70131
O         15.18838         8.56184        -3.05829
H         15.90284         9.22175        -3.22022
O         10.93686        36.29028        -2.74356
H         11.74645        36.70755        -3.10709
O          1.31591        23.35737        -0.70044
H          1.48884        22.42641        -0.96165
O         10.11915        35.42897         0.74654
H         10.07378        36.34370         1.09776
O          9.83996        18.38168         2.84642
H          9.16312        17.70517         3.09762
O         14.66383        30.02050         2.03617
H         14.72421        29.11840         2.41564
O          6.15148        37.13931        -2.75275
H          6.23050        37.93597        -3.31720
O          0.89031        24.95812         2.56198
H          0.96169        25.89904         2.83071
O         15.30447         8.05081         0.55422
H         15.80469         7.43961         1.15469
O          3.59458        20.69787        -1.02520
H          4.37654        20.22648        -1.38591
O         17.30675        31.30450         1.93753
H         17.15060        32.22903         2.24213
O         18.77055        12.42463        -2.03466
H         18.13792        11.85946        -2.53449
O          2.27975        22.67575         2.80775
H          1.92472        23.55629         3.08469
O         19.64033        22.75097         2.78715
H         19.55370        23.68243         3.08108
O          9.70849        33.95620        -2.61038
H         10.24327        34.68708        -3.00757
O         18.47478        19.32270        -1.26261
H         19.32778        19.70924        -1.55597
H          1.29310         2.32128        -0.86214
H         -0.84431         3.46316        -0.29104
H         -0.89530         5.87939         0.19117
H         -0.91034         7.76452         0.57986
H         -0.93475        10.18124         0.88308
H         -1.01265        12.12218         0.71752
H         -1.04856        14.55146         0.77649
H         -1.02925        16.50747         0.40000
H         -0.99492        18.94129         0.57123
H         -0.93891        20.73974         1.51559
H         -0.99900        23.18299         1.33596
H         -0.97316        25.01717         0.29031
H         -0.91376        27.39166        -0.21967
H         -0.98724        29.30879        -0.17846
H         -1.02720        31.72100        -0.04464
H         -0.97109        33.68579         0.04851
H         -0.95525        36.11785        -0.37334
H          0.27179        38.22960        -0.75129
H          3.70005         2.42641        -1.26825
H          2.40065        39.45086        -1.03140
H          6.12819         2.50165        -1.63420
H          4.82316        39.42022        -1.36530
H          8.58146         2.52461        -1.75883
H          7.39575        39.45608        -1.21885
H         11.03756         2.57480        -1.84279
H          9.83460        39.45621        -0.63644
H         13.46556         2.58682        -1.70146
H         12.29445        39.46135        -0.50680
H         15.86051         2.52387        -1.20422
H         14.73295        39.48871        -0.66008
H         18.10894         2.41239        -0.06147
H         17.20895        39.54473        -0.47526
H         20.05302         3.54403         0.92964
H         21.34382         5.65161         1.38360
H         21.51708         8.09362         1.28916
H         21.58719        10.10760         1.33642
H         21.68714        12.52043         1.09882
H         21.95125        14.35491         0.39215
H         21.96790        16.78069         0.54363
H         21.95165        18.66962         0.79615
H         21.92633        21.08039         1.06064
H         21.97131        23.01271         1.07492
H         21.93670        25.38791         0.64169
H         21.86077        27.30364         1.02707
H         21.86019        29.74124         0.85597
H         21.92416        31.52312        -0.25788
H         21.91636        33.96565        -0.44967
H         21.89606        35.89523        -0.14601
H         21.83719        38.35961        -0.20613
H         19.67684        39.58311        -0.38252
