         292
 CSIRO Nanostructure Databank - Neutral Graphene Oxide Data Set
C        -11.07548         0.79339        -0.15930
C         -9.82535         1.57902        -0.08330
C         -8.56279         0.78338         0.13517
C         -7.28270         1.33769        -0.42244
C         -6.03313         0.78487         0.20939
C         -4.72944         1.50844         0.08233
C         -3.43536         0.82925         0.59287
C         -2.27839         1.22160        -0.30596
C         -0.95968         0.55220         0.13820
C          0.11102         1.32009         0.82226
C          1.36379         0.57595         1.15337
C          2.66596         1.29109         0.93506
C          3.93504         0.65203         1.40303
C          5.11079         1.59554         1.73744
C          6.46859         0.84614         1.56671
C          7.73835         1.60406         1.08240
C          8.32413         1.03617        -0.19806
C          9.24461         1.94710        -1.01416
C         10.20824         1.16976        -1.87408
C         -9.70991         2.91912        -0.72296
C         -8.52996         3.47979        -1.08039
C         -7.25925         2.69996        -1.03490
C         -5.92218         3.39829        -1.26009
C         -4.63574         2.71695        -0.85882
C         -3.33228         3.50710        -0.87625
C         -2.13075         2.76414        -0.39548
C         -1.16531         3.51870         0.48349
C          0.10822         2.83349         0.85417
C          1.40826         3.55889         0.85321
C          2.55141         2.69893         0.30219
C          3.87774         3.46047         0.17184
C          5.09379         2.92234         0.90747
C          6.29943         3.80452         1.15762
C          7.63219         3.12592         1.06011
C          8.77976         3.85778         0.44969
C          9.92596         3.04101        -0.14104
C         -8.46167         4.86877        -1.69019
C         -7.23124         5.63156        -1.21923
C         -5.89839         4.93547        -1.49695
C         -4.73937         5.61317        -0.70937
C         -3.36043         5.04716        -1.05503
C         -2.18195         5.75732        -0.32963
C         -1.20150         5.01282         0.54849
C          0.06748         5.77599         0.93429
C          1.47809         5.08410         0.88513
C          2.39437         5.65868        -0.16719
C          3.65532         4.86481        -0.44933
C          4.70767         5.62879        -1.15919
C          6.25024         5.29748         0.91990
C          7.42305         5.92317         0.24994
C          8.66747         5.17309         0.13220
C         -7.30216         6.93635        -0.89830
C         -6.17358         7.79062        -0.34745
C         -4.82865         7.05122        -0.35582
C         -3.57553         7.90202        -0.63534
C         -2.28091         7.23427        -0.18417
C         -1.36734         8.01945         0.79981
C          0.02980         7.28252         0.89693
C          1.37189         7.99178         0.58551
C          2.27928         7.16052        -0.37322
C          3.43536         7.86565        -1.00185
C          4.71655         7.09422        -1.19527
C          6.00807         7.81181        -0.74512
C          7.27335         7.07310        -0.46551
C         -6.04229         9.15907        -0.99491
C         -4.94029         9.90422        -0.81871
C         -3.77541         9.32438        -0.04266
C         -2.44895        10.06110        -0.12305
C         -1.30746         9.45714         0.26677
C         -0.00866        10.21018         0.45309
C          1.21771         9.40652         0.04784
C          2.23192        10.02687        -0.58073
C          3.53747         9.39394        -1.00072
C          4.71077         9.85435        -0.17056
C          5.84333         9.13620        -0.09841
C        -11.09567        -0.54777         0.03298
C         -9.88396        -1.34918         0.20841
C         -8.63822        -0.67602         0.25594
C         -7.37930        -1.44590         0.37052
C         -6.06867        -0.70724         0.44774
C         -4.83419        -1.42775         0.92053
C         -3.51715        -0.72697         0.70813
C         -2.30408        -1.56223         0.32500
C         -0.93490        -0.93091         0.33144
C          0.29722        -1.78102         0.73382
C          1.40367        -0.92784         1.34846
C          2.63765        -1.59339         1.87496
C          3.93070        -0.78545         1.93662
C          5.25059        -1.49992         1.79867
C          6.51409        -0.66813         1.52271
C          7.65384        -1.30635         0.74596
C          8.43188        -0.44408        -0.23511
C          9.70083        -1.06345        -0.82124
C         10.36367        -0.15786        -1.83861
C         -9.92627        -2.75069         0.18408
C         -8.64167        -3.52807         0.04339
C         -7.55798        -2.86907         0.92419
C         -6.26293        -3.67837         0.97187
C         -4.93966        -2.94396         0.99415
C         -3.73591        -3.71617         0.54488
C         -2.39216        -3.03594         0.51246
C         -1.23157        -3.79807         1.09704
C         -0.00047        -2.99436         1.62250
C          1.29706        -3.84945         1.76085
C          2.64508        -3.13725         2.17909
C          3.97383        -3.81614         1.71185
C          5.26123        -3.01540         1.58551
C          6.45899        -3.63563         0.86386
C          7.56783        -2.74903         0.34894
C          8.13462        -3.10053        -1.05419
C          9.44828        -2.45140        -1.32698
C         -8.70424        -5.01716         0.21126
C         -7.48981        -5.75907         0.21826
C         -6.27271        -5.10780         0.60491
C         -5.02006        -5.91030         0.94008
C         -3.77532        -5.19687         0.40518
C         -2.45021        -5.96522         0.20514
C         -1.24168        -5.27210         0.86181
C          0.11216        -5.84815         0.48031
C          1.30073        -5.26747         1.25986
C          2.61985        -5.96918         0.98950
C          3.91939        -5.23211         1.16342
C          5.01053        -5.70593         0.20031
C          6.35920        -5.01423         0.28669
C          7.30491        -5.45208        -0.79336
C          8.16562        -4.58115        -1.34492
C         -7.46122        -7.13060        -0.16037
C         -6.13655        -7.69252        -0.58586
C         -5.05746        -7.36251         0.42840
C         -3.79803        -8.16445         0.39843
C         -2.48561        -7.44643         0.62701
C         -1.16788        -8.16980         0.51089
C          0.18989        -7.41507         0.62363
C          1.35621        -7.92492        -0.20965
C          2.62480        -7.17995         0.05974
C          3.89693        -7.96417        -0.07288
C          5.16921        -7.23020         0.14310
C          6.50276        -7.80653        -0.32194
C          7.17037        -6.87025        -1.33973
C         -6.10047        -9.13848        -1.02442
C         -4.99865        -9.90508        -0.99772
C         -3.74099        -9.60300        -0.20306
C         -2.42860        -9.76496        -0.89347
C         -1.16354        -9.66238        -0.07877
C          0.06684        -9.96906        -0.97517
C          1.40400        -9.36107        -0.59424
C          2.58469        -9.95239        -0.89670
C          3.86227        -9.13794        -1.03893
C          5.17695        -9.87814        -0.99506
C          6.34201        -9.24687        -0.78376
O          6.96383        -4.80947         1.58371
O         -5.70021        -6.92029        -1.76528
H         -6.45061        -6.87483        -2.39456
O          3.45177        -6.16584         2.16051
O          2.28338         7.45757        -1.80023
O         -3.77656       -10.51979         0.92149
H         -4.45088       -10.17390         1.55058
O          0.27180        -5.38600        -0.86690
H         -0.50570        -5.68443        -1.40051
O          2.62745        -3.22762         3.60067
H          3.54821        -3.10433         3.92723
O         -5.65180         5.18797        -2.85387
O         -6.50087        -1.36291        -0.79867
O          7.11402        -2.55789        -1.97228
H          7.33294        -1.61883        -2.16193
O          0.02713         6.55391         2.15561
O         -1.82624        -7.96841         1.80376
O          7.10537         3.57958         2.35232
O         -5.59648         1.68916         1.26373
O         -4.04162        -4.36350        -0.75332
O         -4.81540         6.00678         0.68928
O         -1.48746         6.66167        -1.25405
O          2.47849         4.87971        -1.36979
O          7.46427         0.26181        -1.10012
O          0.77275         3.21837         2.10304
O          2.11453         8.11366         1.80999
H          1.78754         7.40700         2.42170
O          8.36990         2.69734        -1.89946
H          7.80493         2.03938        -2.36286
O         -0.53382        -0.30961        -0.95025
O         -3.15482         5.31234        -2.44632
H         -4.02204         5.11877        -2.92674
O          1.63362        -1.06816         2.77946
O         -2.64555         0.69767        -1.57747
H         -2.40260         1.35921        -2.27030
O          5.65438         7.66409        -2.16115
O         -2.24100         3.09467        -1.79869
O          4.96884         1.96212         3.10683
H          5.23860         1.18866         3.65445
O          6.84836         0.07234         2.73414
O         -8.20098        -3.34265        -1.34546
H         -8.91799        -3.64990        -1.93858
O         -1.59910        -4.75861         2.15682
O         -5.15236         2.59606        -2.20637
O          8.48127        -2.31169         1.40044
O         -0.03740        11.46281        -0.22029
H         -0.29686        11.30993        -1.15178
O          2.15787         5.37555         2.12410
H          1.61330         4.98633         2.84751
O         -5.52602        -3.39435         2.23725
O          3.54388         0.53250         0.00553
O         -9.17102         1.53127         1.24379
O         -2.30534        -2.45945        -0.83544
O          4.71091        -1.09220         3.10350
O          4.90817         2.69737        -0.52242
O          2.10602         2.40258        -1.04192
H          2.81708         1.87852        -1.47491
O         -1.10542       -10.55611         1.01946
H         -2.01864       -10.63769         1.39029
O          1.93203        -7.02541        -1.21582
O          1.04300        -4.98194         2.64723
O         -4.90434        -5.92056         2.37304
H         -4.79461        -6.85755         2.66388
O          5.28072         5.95887         1.27875
O          8.77601         1.33406         2.05870
H          8.43791         1.59541         2.94352
O         -4.16699         9.24133         1.32951
H         -3.40645         8.84402         1.84716
O          3.80668         9.79194        -2.36390
H          3.13153         9.36004        -2.93012
O         -1.93701         8.03999         2.05278
O         -2.24885        -6.05440        -1.22646
H         -2.77489        -5.31602        -1.63251
O         -4.05754        -0.98356         2.05608
O         -4.74885        -8.26197         1.52705
O         -7.33433         1.46881        -1.85953
O          7.38393        -7.82121         0.81861
H          6.86903        -8.15346         1.58585
O          0.40985         0.95057         2.19938
O          4.61478        -8.08699         1.18741
O          0.83973        -2.36020        -0.47285
H          0.57965        -1.79178        -1.23482
O         -3.11985         1.35500         1.87721
H         -3.88824         1.20083         2.47150
O         -9.66046         5.58815        -1.43473
H         -9.72930         5.75004        -0.47153
O         -0.40171        -2.52853         2.90433
H         -0.27335        -3.26096         3.54528
O         -8.07688        -2.78042         2.25609
H         -7.31858        -2.85344         2.88060
O          3.78709        -8.57244        -2.38321
H          3.05716        -7.90309        -2.36976
O          4.95887        -3.74205         2.79720
O         -1.81486         4.21486         1.59257
O          6.33499        -6.81119        -2.50855
H          6.79360        -6.28690        -3.19709
O         -6.55552         8.01388         1.03282
H         -6.07066         7.36179         1.58506
O          0.64998        -7.68514         1.95876
H         -0.08694        -7.51864         2.58895
O         10.82557         2.51340         0.81043
H         10.33087         1.93575         1.44245
O          5.64610         5.00344        -1.84628
H          6.15571         5.67636        -2.36257
O          4.48471        -5.31534        -1.10465
H          4.99339        -5.80000        -1.80801
O         -0.20818        -9.43992        -2.28373
H          0.60152        -9.52260        -2.82911
O         10.64884        -1.16225         0.28046
H         10.25459        -1.77818         0.94519
O         -3.51019         8.06793        -2.05928
H         -3.15196         7.22419        -2.44217
H         11.07808        -0.63725        -2.52470
H         10.76442         1.76377        -2.61617
H         10.51273         3.70857        -0.82068
H          9.49863         5.67335        -0.38903
H          8.15497         7.46687        -1.00097
H          6.68614         9.48534         0.51585
H          4.64127        10.81919         0.35189
H          2.09818        11.08326        -0.86660
H          0.09538        10.42661         1.55240
H         -2.43786        11.12427        -0.41443
H         -4.86336        10.91321        -1.25276
H         -6.90455         9.55472        -1.55303
H         -8.29931         7.40569        -0.85012
H         -8.37387         4.74737        -2.80357
H        -10.63543         3.50162        -0.86020
H        -12.00883         1.32575        -0.39740
H        -12.05156        -1.08924        -0.02958
H        -10.89493        -3.26728         0.09926
H         -9.64124        -5.54330        -0.03241
H         -8.39319        -7.62299        -0.47552
H         -6.99625        -9.51385        -1.54604
H         -5.04888       -10.91877        -1.42556
H         -2.36467        -9.41494        -1.93685
H          0.16458       -11.08813        -1.03644
H          2.59293       -10.99562        -1.25387
H          5.17751       -10.94577        -1.26593
H          7.27851        -9.82555        -0.82942
H          8.18159        -7.26554        -1.62549
H          8.84566        -4.91523        -2.14529
H         10.33283        -3.09836        -1.43556
