         732
 CSIRO Nanostructure Databank - Neutral Graphene Oxide Data Set
C         23.45551        24.61670        -1.90284
C         22.22287        25.23699        -1.68017
C         23.32526        27.38102        -1.31388
C         22.15138        26.59543        -1.39526
C         23.26771        28.79525        -1.03946
C         22.07171        29.52133        -0.98830
C         23.22649        31.68219        -0.75313
C         22.03773        30.90390        -0.77871
C         23.20721        33.11096        -0.67996
C         22.09571        33.87188        -0.24839
C         23.15158        36.04995        -0.95300
C         22.05969        35.24742        -0.29453
C         23.15207        37.47858        -0.47559
C         21.93307        38.21396        -0.59111
C         23.12288        40.36387        -0.16477
C         21.87420        39.55451        -0.36002
C         22.94261        41.59049         0.75289
C         21.71411        42.39968         0.44422
C         22.96616        44.49833         0.15262
C         21.73990        43.72220         0.17995
C         22.94687        45.86277        -0.23443
C         21.83511        46.48390        -0.86340
C         23.07182        48.57263        -1.20854
C         21.89808        47.79224        -1.31768
C         26.04823        23.28094        -2.25300
C         25.94708        24.69242        -2.07906
C         24.65616        25.34864        -1.84951
C         25.78853        27.54165        -1.58434
C         24.59226        26.74552        -1.55175
C         25.79623        28.88130        -1.17678
C         24.53107        29.49846        -0.61490
C         25.69312        31.72038        -0.69625
C         24.48830        31.00031        -0.78437
C         25.70517        33.12337        -0.72486
C         24.45385        33.85963        -1.10979
C         25.56882        35.95262        -0.21158
C         24.44408        35.31732        -0.71835
C         25.52660        37.36082         0.14732
C         24.32682        38.11927         0.00686
C         25.43849        40.19484         0.82907
C         24.31817        39.53840         0.29553
C         25.42015        41.69617         0.88523
C         24.22605        42.39525         0.67912
C         25.42798        44.52145         0.30182
C         24.20152        43.81862         0.44370
C         25.47502        45.98155         0.21042
C         24.13840        46.70482        -0.03304
C         25.47051        48.76604        -0.51843
C         24.20910        48.05963        -0.59672
C         25.50286        50.20997        -0.59221
C         28.47045        23.41750        -2.56957
C         27.25421        22.67659        -2.52583
C         28.40744        24.82950        -2.33046
C         27.12801        25.44958        -2.15435
C         28.31564        27.71981        -1.98130
C         27.02371        26.91957        -2.09005
C         28.24642        29.05324        -1.36965
C         27.00833        29.62192        -1.05950
C         28.19718        31.79731        -0.57741
C         26.96145        30.96620        -0.35789
C         28.16417        33.17445        -0.40494
C         26.87882        33.85731        -0.38648
C         27.99615        35.82504         0.60370
C         26.80440        35.21612        -0.07635
C         27.95628        37.32278         0.66101
C         26.70685        38.01400         0.60681
C         27.83500        39.88518         1.57281
C         26.62634        39.38211         1.03493
C         27.83221        42.05282         1.46107
C         26.62683        42.49937         0.90747
C         27.90982        44.54229         0.25483
C         26.65672        43.84924         0.43743
C         27.92489        45.91196        -0.18824
C         26.73181        46.66029        -0.17058
C         27.93736        48.86358        -0.73332
C         26.68624        48.06940        -0.38512
C         27.92123        50.28016        -0.20249
C         26.64563        50.93189        -0.38004
C         30.99872        20.87255        -3.68345
C         29.81776        21.42854        -3.29873
C         30.93658        23.53063        -2.67122
C         29.73012        22.79275        -2.84166
C         30.88613        24.90448        -2.26531
C         29.62596        25.57405        -2.19668
C         30.75070        27.69600        -1.64501
C         29.59269        26.98648        -1.92544
C         30.72381        29.11003        -1.39142
C         29.47718        29.76611        -1.18313
C         30.60124        31.95307        -1.04264
C         29.43137        31.16297        -0.87610
C         30.64815        33.33835        -0.64195
C         29.38856        33.94283        -0.32894
C         30.51347        35.98604         0.40067
C         29.32100        35.28077         0.11720
C         30.45958        37.36465         0.83454
C         29.16814        38.00600         0.89124
C         30.31743        40.20520         1.20074
C         29.09519        39.36876         1.28665
C         30.30023        41.70348         1.11687
C         29.08146        42.57317         1.11404
C         30.43375        44.42726         0.19867
C         29.11443        43.82590         0.47884
C         30.50906        45.87194        -0.16563
C         29.22098        46.59060        -0.45723
C         30.43438        48.77652         0.03449
C         29.24861        48.10450        -0.52337
C         30.28567        50.14692         0.64612
C         29.08114        50.93113         0.16190
C         30.27605        53.05355         0.55804
C         29.15724        52.37548         0.22097
C         33.67389        19.38497        -3.67676
C         33.64499        20.84601        -3.55365
C         32.25442        21.61206        -3.55937
C         33.40229        23.55984        -2.49623
C         32.20776        22.91960        -2.89824
C         33.34923        24.92851        -2.03188
C         32.10868        25.58211        -1.96516
C         33.31051        27.80785        -1.53058
C         32.04449        26.99865        -1.54917
C         33.27316        29.29882        -1.71211
C         31.91319        29.89326        -1.51077
C         33.50268        32.32216        -1.15161
C         31.71693        31.27245        -1.58984
C         33.19823        33.42035        -0.34604
C         31.86739        34.04420        -0.30281
C         32.89770        35.92024         1.09221
C         31.76552        35.31679         0.28836
C         32.92839        37.43085         1.09266
C         31.64836        38.10745         1.11287
C         32.82526        40.26223         1.47644
C         31.61953        39.50900         1.34898
C         32.84093        41.66931         1.43072
C         31.58405        42.42812         1.34192
C         32.97205        44.44074         0.47720
C         31.63413        43.84177         0.86854
C         32.90575        45.95915         0.52885
C         31.74798        46.63010         0.15248
C         32.83328        48.82396         0.52050
C         31.65464        48.09035         0.22595
C         32.78999        50.24969         0.66491
C         31.57836        50.92619         0.66622
C         32.79620        53.13773         0.81458
C         31.51236        52.37450         1.09295
C         32.82255        54.53839         0.81937
C         35.90633        19.28035        -2.66125
C         34.72794        18.65904        -3.23042
C         35.91056        20.70198        -2.47236
C         34.73809        21.49553        -2.82285
C         35.75591        23.40709        -1.59148
C         34.63373        22.82471        -2.42610
C         35.77831        24.91274        -1.57984
C         34.58466        25.62801        -1.70713
C         35.73944        27.75607        -1.23889
C         34.60331        27.08355        -1.60996
C         35.92545        29.25658        -1.37337
C         34.60041        30.05740        -1.49447
C         35.68728        31.98793        -0.24052
C         34.61850        31.45955        -0.96688
C         35.57930        33.29326         0.32482
C         34.31913        33.97512         0.35702
C         35.41335        35.98865         1.19101
C         34.23883        35.29035         0.86789
C         35.39273        37.42243         1.32196
C         34.11683        38.12516         1.24455
C         35.29129        40.26951         1.58045
C         34.11243        39.57113         1.44804
C         35.29504        41.72593         2.00839
C         34.05674        42.44069         1.51521
C         35.24369        44.61452         1.78985
C         34.08855        43.79652         1.26780
C         35.27135        46.03697         1.27319
C         34.13076        46.66653         0.80976
C         35.21438        48.86493         1.27251
C         34.17611        48.13390         0.42860
C         35.25549        50.32961         0.92059
C         34.04668        51.00078         0.76428
C         35.25787        53.14926         0.56959
C         34.02094        52.43663         0.69316
C         35.25897        54.58833         0.58818
C         34.01873        55.24623         0.70514
C         38.17869        16.35998        -2.15883
C         37.16383        17.11141        -2.63234
C         38.18592        19.16621        -1.72269
C         37.04520        18.52580        -2.31158
C         38.21717        20.59502        -1.62520
C         37.07183        21.33710        -2.00157
C         38.25305        23.43658        -1.21427
C         37.10921        22.84285        -2.01008
C         38.17402        24.83966        -0.89334
C         36.98020        25.54341        -1.13730
C         37.99787        27.61525        -0.02733
C         36.85748        26.94829        -0.71690
C         38.01469        29.09641         0.04936
C         36.96261        29.83936        -0.41501
C         38.03991        31.88005         0.62740
C         37.04702        31.34411        -0.36707
C         37.96269        33.21308         1.05484
C         36.73008        33.93689         0.87289
C         37.86237        36.00529         1.57078
C         36.66379        35.29794         1.23141
C         37.84062        37.42674         1.57587
C         36.59365        38.12296         1.39750
C         37.84151        40.34113         1.32396
C         36.53928        39.59913         1.05895
C         37.80481        41.78340         1.63563
C         36.57664        42.47752         1.70125
C         37.78457        44.60389         1.66019
C         36.56361        43.87953         1.66411
C         37.77325        46.05674         1.49353
C         36.53421        46.75950         1.33144
C         37.75219        48.89035         1.09290
C         36.54403        48.15954         1.19337
C         37.74637        50.31322         0.89604
C         36.49592        51.02494         0.82308
C         37.72998        53.07897         0.21492
C         36.47465        52.41360         0.55177
C         37.74167        54.65918         0.22246
C         36.50301        55.32634         0.60702
C         37.82520        57.34341         1.02007
C         36.60659        56.66465         1.02263
C         40.43399        14.76252        -1.12066
C         40.42062        16.14643        -0.98161
C         39.12107        16.90917        -1.11668
C         40.46000        19.04233        -0.80369
C         39.29580        18.40272        -1.27493
C         40.50338        20.47430        -0.71766
C         39.38612        21.25079        -1.11479
C         40.66715        23.39080        -0.56875
C         39.37804        22.68494        -0.92949
C         40.47727        24.75083         0.06934
C         39.30694        25.49145        -0.24470
C         40.36392        27.49591         0.71198
C         39.25074        26.85429         0.13007
C         40.29731        28.90843         1.01835
C         39.16527        29.69377         0.70957
C         40.19485        31.68676         1.77980
C         39.14677        31.09361         1.00684
C         40.26600        33.11649         1.97584
C         39.09773        33.86183         1.65271
C         40.27321        35.99559         2.10949
C         39.07686        35.28956         1.79750
C         40.24264        37.42437         2.10197
C         39.07083        38.11754         1.77661
C         40.30996        40.34741         2.01897
C         39.11384        39.58647         1.60021
C         40.26731        41.74227         2.01875
C         39.03186        42.47786         1.80947
C         40.24258        44.65685         2.05465
C         38.99698        43.89826         1.84048
C         40.24977        46.12065         1.74614
C         38.97424        46.78036         1.41201
C         40.23357        48.88073         1.03458
C         38.99341        48.18314         1.16895
C         40.22668        50.28991         0.81846
C         38.98034        51.00734         0.75362
C         40.21312        53.12454         0.35733
C         38.99813        52.40161         0.45849
C         40.23911        54.56374         0.31459
C         39.03384        55.31436         0.42605
C         40.32070        57.41058         0.67019
C         39.05299        56.69935         0.72221
C         40.39466        58.80552         0.85271
C         42.75227        14.67009        -0.43738
C         41.60631        14.02883        -0.87387
C         42.77136        16.07304        -0.24425
C         41.59692        16.82322        -0.55131
C         42.75057        18.89178         0.11967
C         41.60757        18.25487        -0.40476
C         42.72754        20.30394         0.35768
C         41.63343        21.10577        -0.07496
C         42.57221        23.05920         1.05065
C         41.64479        22.50830         0.15229
C         42.58390        24.50591         1.40039
C         41.51082        25.34385         0.82123
C         42.69536        27.42846         1.57325
C         41.50420        26.74248         1.09751
C         42.67932        28.83954         1.80148
C         41.39800        29.50623         1.70179
C         42.95229        31.78616         2.50408
C         41.17698        30.78688         2.24507
C         42.78216        33.16947         2.23743
C         41.50299        33.83170         2.23556
C         42.76124        35.96752         2.24630
C         41.51267        35.26278         2.23063
C         42.77703        37.41745         2.52844
C         41.46200        38.18448         2.46512
C         42.78155        40.31458         2.22569
C         41.52636        39.64050         2.24824
C         42.81530        41.71219         2.01653
C         41.54839        42.44808         2.18420
C         42.72041        44.54396         1.33657
C         41.56041        43.93386         2.09545
C         42.72440        46.05439         1.34362
C         41.52578        46.76906         1.36814
C         42.68705        48.81674         0.71555
C         41.48651        48.16207         1.05460
C         42.67605        50.24882         0.50034
C         41.44513        50.99081         0.61411
C         42.67572        53.11789         0.29238
C         41.45153        52.40880         0.42012
C         42.71120        54.52359         0.18077
C         41.48890        55.25524         0.28415
C         42.75397        57.38448         0.22244
C         41.51731        56.68751         0.37563
C         42.77516        58.77783         0.40608
C         41.60951        59.47421         0.72922
C         45.12505        16.02642         0.60335
C         43.94311        16.74555         0.27982
C         45.08481        18.82556         1.00728
C         43.92155        18.14815         0.49539
C         45.05081        20.22523         1.32078
C         43.78136        20.89513         1.11211
C         45.28891        23.17929         2.12042
C         43.49489        22.16986         1.63560
C         45.19589        24.56451         1.87513
C         43.88648        25.25196         1.84658
C         45.14840        27.42483         1.69953
C         43.91576        26.71905         1.68297
C         45.13876        28.83926         1.78207
C         43.92506        29.54812         1.95102
C         45.17985        31.72539         1.58777
C         44.01497        31.00617         2.03964
C         45.14314        33.14494         1.54078
C         43.96939        33.86883         1.87983
C         45.23435        35.98902         1.89397
C         43.96865        35.29749         1.96984
C         45.28679        37.39753         2.37144
C         44.03430        38.18775         2.39613
C         45.28172        40.36648         2.41264
C         44.02798        39.56670         2.33835
C         45.27272        41.78374         2.02488
C         44.04913        42.45279         1.88413
C         45.23721        44.59361         1.43243
C         44.04182        43.88228         1.64224
C         45.19488        46.00052         1.06404
C         43.95283        46.71631         1.05428
C         45.14219        48.75618         0.36913
C         43.92386        48.09842         0.71747
C         45.01019        50.10105        -0.30895
C         43.86069        50.90227         0.21305
C         45.20977        53.05020        -0.13722
C         43.93318        52.35930         0.28502
C         45.15320        54.50876        -0.39189
C         43.95830        55.22145        -0.08408
C         45.14992        57.30513        -0.49967
C         43.96277        56.64305        -0.12451
C         46.25965        16.67524         1.03706
C         47.51454        18.78967         1.46982
C         46.28535        18.08429         1.21058
C         47.50811        20.20531         1.52420
C         46.28516        20.92656         1.58454
C         47.61250        23.09379         1.57521
C         46.37679        22.37890         1.73631
C         47.62659        24.52269         1.60647
C         46.39837        25.26945         1.64003
C         47.63117        27.39540         1.46285
C         46.40526        26.69956         1.60912
C         47.64547        28.81999         1.43536
C         46.44546        29.59225         1.91659
C         47.59322        31.66333         1.03969
C         46.40085        31.01209         1.39307
C         47.60926        33.12593         0.76027
C         46.31228        33.90950         1.06867
C         47.63110        36.08268         1.22778
C         46.37320        35.34080         1.44606
C         47.77055        37.46643         1.72617
C         46.59424        38.13435         2.31833
C         47.84963        40.31894         1.98470
C         46.62136        39.62556         2.41611
C         47.84866        41.79959         1.99655
C         46.54449        42.58920         2.23236
C         47.66829        44.56958         1.03843
C         46.50918        43.93276         1.52143
C         47.62943        45.95415         0.64555
C         46.39107        46.68774         0.75843
C         47.63154        48.87279         0.25426
C         46.35156        48.07824         0.42029
C         47.46849        49.94782        -0.84870
C         46.29798        50.85721        -0.52241
C         47.48577        52.92592        -1.26532
C         46.32389        52.21051        -0.66415
C         47.53134        54.43080        -1.22602
C         46.32218        55.19248        -0.77983
C         46.29616        56.59749        -0.84027
C         49.95401        18.75355         1.84120
C         48.75039        18.09243         1.64310
C         50.05097        20.15647         1.76620
C         48.83054        20.90661         1.27459
C         50.04265        23.07675         1.71015
C         48.83899        22.38469         1.55925
C         50.08590        24.50099         1.64439
C         48.86706        25.21596         1.54305
C         50.08313        27.30850         1.15839
C         48.87361        26.64985         1.38608
C         50.04411        28.74266         0.81039
C         48.81797        29.52625         1.10865
C         50.07211        31.65547         0.51930
C         48.81306        30.93544         0.96367
C         50.10248        33.13391         0.88115
C         48.90482        33.84278         0.83733
C         50.21001        35.98132         1.12333
C         48.92692        35.31339         0.87258
C         50.23843        37.33965         1.80421
C         48.96495        38.14331         1.65712
C         50.22502        40.25341         1.25085
C         49.00540        39.59535         1.72191
C         50.15514        41.60876         0.85893
C         49.02786        42.45323         1.31280
C         49.93536        44.39363         0.07880
C         48.89724        43.83827         0.80264
C         49.92933        45.79897        -0.24876
C         48.78476        46.58410         0.12555
C         49.99896        48.62050        -0.49781
C         48.83819        48.01094        -0.06337
C         50.05815        50.13059        -0.52043
C         48.76895        50.70779        -1.07752
C         50.06012        52.90092        -1.31912
C         48.77635        52.17211        -1.36472
C         50.03408        54.31344        -1.23013
C         48.86892        55.04976        -1.16800
C         52.53219        20.21617         2.04505
C         51.28386        20.84858         1.93242
C         52.58087        23.07488         2.08513
C         51.26263        22.31940         2.05147
C         52.55252        24.51443         1.77455
C         51.35534        25.20977         1.60966
C         52.55591        27.33128         1.10364
C         51.34584        26.63252         1.28500
C         52.61235        28.74323         0.83206
C         51.33661        29.48032         0.66836
C         52.57874        31.66950         0.74980
C         51.30561        30.93681         1.07165
C         52.61079        33.04947         0.90087
C         51.36536        33.80055         0.97041
C         52.65262        35.88833         1.37225
C         51.38511        35.23269         1.11708
C         52.81055        37.37989         1.42439
C         51.52367        38.14440         1.56983
C         52.59177        40.15505         0.52634
C         51.43363        39.53180         1.06319
C         52.45348        41.50018         0.05533
C         51.24186        42.19775         0.18331
C         52.22410        44.22676        -0.99133
C         50.98462        43.49969        -0.54782
C         52.18211        45.61408        -1.28424
C         51.03363        46.40503        -0.88054
C         52.26811        48.47328        -1.44856
C         51.12604        47.84510        -0.96155
C         52.51070        49.93351        -1.16750
C         51.24454        50.73757        -1.21749
C         52.50833        52.71827        -1.88030
C         51.26690        52.11557        -1.45331
C         53.75224        20.92249         2.02828
C         55.08800        23.02629         1.74788
C         53.83517        22.31181         1.94357
C         55.10800        24.43543         1.62856
C         53.84676        25.19825         1.77717
C         55.09192        27.22953         0.86036
C         53.83309        26.66549         1.40597
C         55.08533        28.72337         0.56432
C         53.80141        29.44156         0.71223
C         55.12758        31.66548         0.60205
C         53.80129        30.91012         0.51706
C         55.14191        33.11571         0.93554
C         53.88368        33.73116         1.09724
C         55.54958        36.13025         1.06490
C         53.74985        35.08452         1.55755
C         55.24642        37.38876         0.53067
C         53.97987        38.08187         0.78022
C         55.14151        40.14639         0.01280
C         53.84840        39.40987         0.38976
C         54.91039        41.50071        -0.67011
C         53.59692        42.19815        -0.57419
C         54.42956        44.07347        -2.01861
C         53.36793        43.47836        -1.30509
C         54.39877        45.46013        -2.31896
C         53.29452        46.23433        -1.88970
C         54.64275        48.32107        -2.31563
C         53.26319        47.69678        -2.26141
C         54.75814        49.74077        -2.28896
C         53.65690        50.54765        -1.92826
C         53.62859        51.95765        -2.12800
C         57.52621        23.01421         1.58932
C         56.32992        22.33580         1.70416
C         57.57041        24.42459         1.45462
C         56.33818        25.13946         1.44238
C         57.56325        27.25539         0.97801
C         56.36268        26.55298         1.15995
C         57.55960        28.70383         0.82085
C         56.36424        29.41509         0.72833
C         57.66443        31.62612         0.80561
C         56.34559        30.87083         0.92426
C         57.59890        33.05772         0.46479
C         56.42892        33.80110         0.76042
C         57.57223        35.82457        -0.20158
C         56.51363        35.23390         0.54716
C         57.46232        37.19172        -0.55524
C         56.27960        37.95287        -0.30181
C         57.21262        39.90812        -1.49260
C         56.17753        39.30501        -0.70958
C         57.07002        41.21044        -2.03134
C         55.77228        41.88448        -1.83842
C         56.63506        43.81137        -3.30415
C         55.52833        43.20709        -2.49671
C         56.59990        45.31400        -3.54357
C         55.54839        46.12070        -2.89654
C         57.10640        48.09185        -2.96268
C         55.72095        47.50854        -2.73079
C         57.10949        49.59109        -2.99605
C         56.03083        50.33348        -2.67985
C         60.06233        24.46518         1.35858
C         58.82162        25.14008         1.29243
C         60.04765        27.24235         0.86526
C         58.81591        26.54873         1.06250
C         60.03653        28.67697         0.58985
C         58.82458        29.41132         0.69167
C         59.99941        31.46541        -0.01042
C         58.84969        30.81947         0.49395
C         59.92256        32.87003        -0.41346
C         58.75194        33.65254        -0.14793
C         59.82129        35.58943        -1.24651
C         58.72567        35.02690        -0.54257
C         59.84706        37.04644        -1.53331
C         58.62213        37.87977        -1.13768
C         59.43591        39.73849        -2.56804
C         58.42168        39.18599        -1.77478
C         59.30627        41.09184        -3.05367
C         58.09256        41.81318        -2.81676
C         59.03440        43.78600        -3.97635
C         57.94085        43.13032        -3.37156
C         58.97258        45.22083        -4.30889
C         57.82908        45.96608        -4.00647
C         58.98488        48.06682        -4.72825
C         57.70968        47.44667        -4.25411
C         61.25666        25.15355         1.19484
C         61.25348        26.52809         0.94211
C         61.20767        29.36182         0.20291
C         61.18285        30.70645        -0.13885
C         60.97842        33.45693        -1.12885
C         60.92487        34.78389        -1.55295
C         60.67532        37.60543        -2.60665
C         60.52854        38.89551        -3.00747
C         60.35449        41.74165        -3.74400
C         60.23805        43.05782        -4.15226
C         60.10489        45.90542        -4.82873
C         60.08646        47.30526        -5.02037
O         30.33755        40.93469        -0.13794
O         54.74148        42.52398         0.36126
O         53.95652        26.26308         2.80617
O         52.44879        38.01116         2.71015
O         29.44772        47.27469        -1.73783
O         24.73656        46.62029         1.30255
O         48.10484        35.97837        -0.16552
O         42.86858        24.80845         2.79443
O         55.02407        27.71012        -0.51145
O         38.77490        40.02659         0.21863
O         46.14611        37.50546         3.56821
O         44.20996        22.56490         2.76677
O         51.84086        22.77020         3.32726
O         40.19822        45.63689         3.14851
O         48.93269        42.37735         2.78733
O         47.20330        53.69096        -2.48146
O         31.45999        43.56289         2.28547
O         59.83722        37.83606        -0.30121
O         48.83308        51.14291        -2.46204
O         36.89747        27.05385         0.78797
O         54.55456        31.33377        -0.69314
O         37.67219        53.87046        -1.00261
O         46.71887        33.57378        -0.30681
O         27.79019        41.01762         2.38726
O         54.84768        35.67386         2.18163
O         46.06132        40.13975         3.65973
O         34.03565        29.83497        -2.83430
O         50.61415        29.07961        -0.52188
O         57.04903        31.32087         2.11274
O         56.11862        44.34463        -4.56240
O         33.14143        21.55010        -4.71935
O         32.69790        27.36043        -0.26205
O         27.60485        27.59506        -3.26046
O         32.67265        32.05128        -2.23894
O         41.98495        31.17698         3.31748
O         30.69228        44.80425        -1.19309
O         42.03283        37.76148         3.75000
O         44.94735        52.79171         1.29196
O         41.75614        43.35530         3.39992
O         55.00699        41.95714        -3.09767
O         29.97955        49.90638         2.09919
H         30.73319        49.39189         2.46494
O         37.55512        31.78140        -1.67875
H         37.27866        31.09693        -2.33917
O         22.79736        41.07210         2.10141
H         22.71814        41.83399         2.71212
O         36.34239        39.63461        -0.39486
H         37.23949        39.56163        -0.79809
O         27.89890        35.37351         2.01410
H         28.74251        35.60998         2.45641
O         32.53957        35.56324         2.49155
H         33.28882        35.83791         3.06265
O         41.30539        23.68497        -1.87219
H         40.68893        24.25975        -2.37472
O         42.41073        44.18867        -0.06649
H         43.09739        44.59614        -0.63693
O         27.81781        49.10595        -2.17591
H         28.23201        48.32871        -2.62222
O         33.24378        44.08217        -0.90757
H         32.43591        44.31732        -1.43106
O         26.93379        30.69494         1.07823
H         26.09528        30.19788         1.26395
O         22.88038        36.07056        -2.42137
H         23.48625        36.73219        -2.81876
O         50.18209        50.57697         0.86735
H         51.08218        50.29615         1.15841
O         48.96865        20.84800        -0.20915
H         48.92677        19.90023        -0.46215
O         37.32235        23.26461        -3.39124
H         38.09786        22.77787        -3.74054
O         46.65417        29.75240         3.37904
H         46.69287        28.85238         3.76828
O         50.35032        43.05252        -1.81005
H         50.28458        43.83356        -2.40060
O         35.00746        44.72296         3.23642
H         35.09237        43.81246         3.60991
O         24.40490        33.83615        -2.58620
H         23.67936        34.46479        -2.83926
O         52.92897        49.98001         0.28164
H         53.32684        50.86617         0.42799
O         34.75192        48.76677         2.65051
H         35.46296        49.09581         3.23868
O         35.23504        41.74044         3.48523
H         34.39009        41.31575         3.74825
O         35.53090        22.98327        -0.21654
H         34.78407        23.50394         0.14669
O         24.60097        29.27225         0.86297
H         24.53906        28.30328         1.00821
O         38.44147        16.72568         0.17895
H         37.61217        17.24880         0.14788
O         50.14735        31.62289        -0.92495
H         49.32412        32.01374        -1.28528
O         47.83431        49.58884         1.49309
H         48.07729        48.94589         2.19049
O         44.58470        49.74927        -1.68317
H         45.37995        49.33728        -2.11320
O         47.18140        49.22514        -2.07473
H         47.54154        49.78297        -2.80759
O         46.51867        42.91620         3.65499
H         46.51274        42.05795         4.14167
O         56.68969        47.66081        -5.27999
H         56.94677        47.14083        -6.07038
O         34.60444        48.22518        -0.95843
H         33.95259        47.74295        -1.50956
O         55.79023        40.42991         1.28896
H         55.41966        41.28734         1.60763
O         36.56885        29.40937        -2.69333
H         35.83675        29.40284        -3.35693
O         57.97118        47.66281        -1.87781
H         57.66267        48.09488        -1.05423
O         52.76130        47.75115        -3.65472
H         53.44164        47.32683        -4.22170
O         50.20737        36.97785         3.22058
H         51.11171        37.17055         3.57779
O         23.46740        40.90767        -1.48038
H         23.53223        40.15591        -2.10567
O         31.36089        52.35351         2.55656
H         30.64641        51.69813         2.74615
O         51.19823        30.91138         2.52553
H         51.18430        31.83693         2.85056
H         23.46672        23.54411        -2.13529
H         21.30054        24.64201        -1.73179
H         21.16881        27.05253        -1.21837
H         21.11469        29.00771        -1.15989
H         21.06278        31.41010        -0.75175
H         21.23027        33.34359         0.18090
H         21.23168        35.77950         0.19621
H         21.02032        37.66999        -0.87713
H         20.92006        40.08444        -0.48846
H         20.74298        41.88716         0.51121
H         20.78782        44.24445         0.00740
H         20.91014        45.91450        -1.02707
H         23.08104        49.58170        -1.64321
H         21.02068        48.22731        -1.81615
H         25.15044        22.65211        -2.19106
H         24.54843        50.74614        -0.69404
H         27.27285        21.58863        -2.67431
H         26.56953        52.02418        -0.28225
H         31.01179        19.86831        -4.12864
H         28.89669        20.84263        -3.42043
H         30.24462        54.15236         0.54452
H         28.27831        52.95025        -0.10607
H         32.83352        18.88120        -4.17407
H         31.89292        55.10931         0.94601
H         34.70223        17.56641        -3.34102
H         33.98343        56.34430         0.71813
H         38.24678        15.30242        -2.45062
H         36.44059        16.66167        -3.32739
H         37.82299        58.40572         1.29805
H         35.70438        57.21229         1.32881
H         39.52290        14.22099        -1.40838
H         39.49130        59.38354         1.08807
H         43.64492        14.06737        -0.22609
H         41.60244        12.93763        -1.00263
H         43.71548        59.33712         0.31369
H         41.64994        60.56218         0.87730
H         45.16201        14.93657         0.47934
H         45.17590        58.40131        -0.55789
H         47.16035        16.07920         1.23319
H         47.19065        57.15130        -1.15579
H         50.84537        18.15656         2.08014
H         48.75191        16.99589         1.68900
H         50.98979        54.85542        -1.17507
H         48.94053        56.13728        -1.02823
H         52.58520        19.11856         2.04232
H         52.53493        53.79528        -2.09435
H         54.67235        20.32203         2.01178
H         54.50581        52.45780        -2.56199
H         58.45623        22.43089         1.58672
H         56.35228        21.24186         1.79381
H         58.06098        50.09109        -3.23099
H         56.12305        51.42873        -2.68551
H         60.09829        23.38550         1.55268
H         58.99641        49.14676        -4.93362
H         62.21199        24.61495         1.26116
H         62.21555        27.04182         0.81759
H         62.15890        28.82105         0.11293
H         62.11270        31.17765        -0.48306
H         61.87577        32.87146        -1.36719
H         61.78395        35.20727        -2.09089
H         61.41690        36.96337        -3.10336
H         61.19982        39.27703        -3.78916
H         61.30360        41.21911        -3.92170
H         61.10401        43.53080        -4.63265
H         61.02086        45.36015        -5.08692
H         60.99063        47.79102        -5.41620
