         270
 CSIRO Nanostructure Databank - Neutral Graphene Oxide Data Set
C        -11.03817         0.85658        -0.11900
C         -9.97900         1.55830         0.69975
C         -8.63363         0.85612         0.57324
C         -7.38510         1.62945         0.27171
C         -6.15023         0.86797        -0.11194
C         -4.83714         1.61590        -0.05835
C         -3.58609         0.87767        -0.39147
C         -2.49543         1.61139        -1.12323
C         -1.27314         0.81634        -1.50584
C          0.04246         1.50361        -1.86813
C          1.39723         0.67689        -1.82542
C          2.64549         1.48573        -1.30559
C          3.99754         0.68448        -1.62804
C          5.29520         1.46408        -1.22758
C          6.47070         0.85051        -0.46825
C          7.74709         1.65400        -0.10962
C          8.78396         1.00482         0.83652
C         10.18412         1.62302         0.73193
C         11.33743         0.76832         0.50126
C         -9.87455         3.05099         0.50407
C         -8.70676         3.76542         0.31001
C         -7.43086         3.08603        -0.13885
C         -6.12699         3.83565         0.10969
C         -4.84036         3.11280        -0.15068
C         -3.62797         3.79202        -0.71538
C         -2.49839         3.10944        -1.09269
C         -1.28829         3.81198        -1.68016
C          0.01061         3.00658        -2.01906
C          1.36197         3.70017        -1.95311
C          2.70622         2.87692        -2.02063
C          3.87849         3.64162        -1.36382
C          5.26135         2.97386        -1.60352
C          6.39894         3.69197        -0.88095
C          7.71035         3.12395        -0.37925
C          9.51484         3.99618         1.37940
C         10.46747         2.91922         1.03327
C         -8.69126         5.18178         0.33228
C         -7.53678         5.93521        -0.01245
C         -6.35006         5.15829        -0.57608
C         -5.07155         6.01456        -0.83333
C         -3.65033         5.29625        -0.49620
C         -2.49181         6.10425        -1.10756
C         -1.25860         5.32781        -1.56795
C          0.09424         5.98080        -1.62499
C          1.32582         5.11578        -1.46830
C          2.35958         5.46308        -0.43542
C          3.68200         4.76718        -0.61027
C          4.73471         5.23473         0.32337
C          6.09745         4.78291         0.05404
C          7.14865         4.91350         1.12807
C          8.36888         4.27582         0.42094
C         -7.56897         7.30969         0.07258
C         -6.37649         8.18791        -0.21426
C         -5.11760         7.32355         0.00816
C         -3.85318         8.16074        -0.18876
C         -2.55593         7.56485        -0.70999
C         -1.43302         8.57343        -0.56902
C          0.56494         7.39197        -1.98925
C          0.98544         7.56816         0.61931
C          2.22969         6.70398         0.46439
C          3.52154         7.35787         0.88899
C          4.69403         6.47470         1.15077
C          5.98381         7.06207         1.64067
C          7.14633         6.34288         1.63228
C         -6.31498         9.33443         0.78998
C         -5.15312         9.83910         1.23851
C         -3.85442         9.44203         0.62692
C         -2.57204         9.87442         1.19487
C         -1.37370         9.38596         0.69871
C         -0.11689         9.72760         1.26989
C          1.08916         8.98551         1.08877
C          2.28763         9.47363         1.59687
C          3.55735         8.75982         1.43528
C          4.77106         9.15673         2.18759
C          5.89373         8.39956         2.22126
C        -11.02355        -0.48259        -0.27184
C         -9.90575        -1.32677         0.16293
C         -8.64001        -0.62750         0.41846
C         -7.46658        -1.32578         0.35213
C         -6.20252        -0.62359        -0.02294
C         -4.90860        -1.36819        -0.04476
C         -3.64913        -0.64866        -0.41442
C         -2.51105        -1.45549        -0.97347
C         -1.24667        -0.68387        -1.23628
C          0.01618        -1.22873        -0.65241
C          1.32156        -0.53746        -0.90213
C          2.61701        -1.31275        -0.67941
C          3.96126        -0.74172        -1.03841
C          5.28589        -1.41958        -0.59744
C          6.21443        -0.48420         0.24407
C          7.51064        -1.19055         0.70784
C          8.80580        -0.49932         0.60452
C          9.97805        -1.25710         0.55889
C         11.25823        -0.57995         0.45408
C         -9.96383        -2.69027         0.09647
C         -8.83934        -3.56777         0.60721
C         -7.48593        -2.81172         0.47801
C         -6.23059        -3.54287         0.15518
C         -4.95458        -2.84191        -0.17512
C         -3.79232        -3.54227        -0.09943
C         -2.49323        -2.96883        -0.62619
C         -1.27450        -3.38417         0.17348
C         -0.01990        -2.59615         0.00333
C          1.28348        -3.32452        -0.25194
C          2.48164        -2.48463         0.28486
C          3.76208        -3.31053         0.38602
C          5.05553        -2.52448         0.45647
C          6.27759        -3.42639         0.48494
C          7.52913        -2.71183         0.79212
C          8.80074        -3.43936         0.59644
C          9.97958        -2.68318         0.53495
C         -8.80247        -4.96185        -0.06174
C         -8.06430        -6.02836         0.26629
C         -6.08727        -4.95128        -0.36979
C         -5.08693        -5.71453         0.47025
C         -3.79663        -4.92724         0.47453
C         -2.49539        -5.64057         0.71178
C         -1.23057        -4.87038         0.47839
C          0.08083        -5.57124         0.26917
C          1.32943        -4.77179         0.16754
C          2.54113        -5.54631        -0.30794
C          3.78414        -4.78703         0.13826
C          5.06911        -5.48479        -0.17696
C          6.30850        -4.76165         0.18951
C          7.54596        -5.55222         0.25511
C          8.77172        -4.83560         0.44198
C         -7.64763        -7.27891         0.46491
C         -6.30715        -7.93044         0.02444
C         -5.16853        -7.20653         0.79591
C         -3.82616        -7.90752         0.60209
C         -2.53344        -7.14906         0.64681
C         -1.40096        -7.99789         1.21841
C          0.21009        -6.95767        -0.24570
C          1.30803        -7.72423         0.09455
C          2.60613        -6.96532         0.34734
C          3.75369        -7.78019        -0.28825
C          5.06126        -6.96897        -0.41232
C          6.39339        -7.72314        -0.50436
C          7.53431        -6.93589         0.11117
C         -6.20176        -9.41658         0.34636
C         -5.06270       -10.05857         0.65761
C         -3.74736        -9.38597         1.00918
C         -2.47249       -10.01224         0.43096
C         -1.25418        -9.35301         0.55195
C          0.02629        -9.88764         0.17899
C          1.29007        -9.18665         0.09922
C          2.50795        -9.87876         0.16074
C          3.83355        -9.16032         0.42346
C          5.12292        -9.85919         0.04043
C          6.27262        -9.19206        -0.14787
O          5.35902        -0.32521         1.41193
O          3.68125        -4.26965         1.49381
O          6.76935        -7.78437        -1.91934
H          6.55069        -6.90286        -2.30447
O         -0.11940         2.14437        -3.16826
O          1.71240         4.81206        -2.83271
O         -0.73371        -2.58685         1.26158
O         -0.69870        -7.31965        -1.17642
H         -0.49075        -8.20866        -1.53145
O          6.58940         5.09075        -1.28376
O         -0.75855         8.91826        -1.53359
O          6.38710         0.75490        -1.91285
O          8.30599         1.19251         2.18692
O          3.26301        -1.66783        -1.92250
O         -6.59775        -3.31215         1.54878
O         -6.34164         0.09253        -1.33257
O          1.61461         0.23429        -3.14727
H          1.83705         1.04052        -3.68404
O         -5.52482        -7.32216         2.18109
H         -5.09631        -6.58202         2.66961
O         -1.63418         4.65745        -2.81574
O         -1.75123        -5.11948         1.83109
O          0.56540        -0.22806         0.30039
O         -2.79666         7.11786        -2.08298
O         -5.27297         3.65196         1.22643
O          0.90102        -5.22286         1.46167
O          2.87315         2.61355        -3.37388
O         -6.27305        -5.19466        -1.56362
O          3.37483        -8.10028        -1.65173
H          4.13787        -8.55057        -2.07428
O         -3.84922         1.30073         0.97534
O         -1.99395        -1.31670        -2.32491
O         -3.90569        -1.06632         0.96974
O         -2.32114        -3.72444        -1.85963
H         -2.07380        -3.08334        -2.57317
O          3.86429         8.45132        -0.00529
O          1.92100         5.36487         0.95546
O         -2.32010         1.10606        -2.47542
O         -7.75033         1.35694         1.65257
O         -0.84377        -7.70869         2.26156
O         -6.83123         4.60443        -1.88266
O         -9.08772        -3.74253         2.01229
H         -8.21913        -3.91249         2.44429
O         -3.33488         5.39767         0.92575
H         -3.82682         4.68015         1.40200
O          4.94696        -1.73226         1.70982
O         -4.67806        -4.97211         1.64718
O         -7.40545         3.22412        -1.61892
O          2.92398        -6.78865         1.73428
H          2.20204        -6.24564         2.14051
O         -0.12376         7.02630         0.62340
O          4.38155         5.17667         1.75558
O         -5.23667         6.98558         1.40622
H         -4.39733         6.55408         1.69637
O         -3.10417        -7.63095        -0.61728
O          5.01684        -6.02163        -1.54834
O        -10.39247         1.40251         2.08961
H         -9.59638         1.57280         2.64170
O         -3.99671         9.44386        -0.84467
O          7.43139        -1.88784         1.99337
O         -6.48836         8.70066        -1.54914
H         -5.99111         8.10043        -2.15320
O          3.94517        -9.11236         1.86300
H          3.34183        -8.40512         2.20465
O          6.81359         4.01008         2.21085
H          5.93137         4.28861         2.55945
O          8.41131         2.24993        -1.27991
O          2.43823        -5.64111        -1.73381
H          3.20654        -6.17167        -2.07067
O          0.24977         6.69384        -2.98449
O          5.93545        -1.95095        -1.73883
H          5.81546        -1.31374        -2.47973
O          5.49909         3.04845        -3.01226
H          6.26414         2.46654        -3.21353
O         -3.63597        -9.47879         2.45197
H         -2.77454        -9.10379         2.73556
O          1.29090        -3.31354        -1.69572
H          1.92063        -3.99316        -2.04630
O         -6.12742        -7.86011        -1.38602
H         -6.23658        -6.92858        -1.70376
O          4.14449         0.49802        -3.02585
H          3.96048         1.37867        -3.47457
O          9.72137         4.74923         2.31893
H          8.13424         2.14893         2.34599
O         -5.11116         6.39391        -2.20490
H         -5.31400         5.60904        -2.75856
O          2.17836        -1.97422         1.57946
H          2.33712        -2.68382         2.23914
O          2.56959         1.72800         0.09667
H          1.99219         1.07693         0.55521
H         12.16301        -1.19040         0.32521
H         12.31617         1.26395         0.42033
H         11.53051         3.20430         1.09860
H          8.76210         4.99866        -0.33186
H          8.06698         6.77771         2.04976
H          6.78288         8.77912         2.74646
H          4.75688        10.13430         2.69218
H          2.29830        10.44983         2.10675
H         -0.07258        10.61254         1.92631
H         -2.58284        10.48544         2.11144
H         -5.14185        10.63513         1.99895
H         -7.26618         9.70746         1.20025
H         -8.50960         7.78890         0.38947
H         -9.59712         5.71934         0.64952
H        -10.78739         3.62227         0.73659
H        -11.89674         1.44408        -0.47555
H        -11.86267        -0.98563        -0.77638
H        -10.90868        -3.17417        -0.19480
H         -9.43486        -5.06743        -0.96567
H         -8.27658        -7.90478         1.12693
H         -7.10929       -10.01764         0.17384
H         -5.09436       -11.15119         0.79773
H         -2.51529       -11.02443        -0.00258
H          0.05913       -10.97358        -0.01307
H          2.48432       -10.97028         0.31299
H          5.15945       -10.95168         0.17917
H          7.20372        -9.76712        -0.27568
H          8.50036        -7.46190         0.17615
H          9.72211        -5.38655         0.37527
H         10.94498        -3.20059         0.43115
