         276
 CSIRO Nanostructure Databank - Neutral Graphene Oxide Data Set
C        -10.46688         0.31805        -2.63233
C         -9.52947         1.17365        -1.92265
C         -8.32754         0.47524        -1.32201
C         -7.42135         1.36548        -0.51615
C         -6.42187         0.77920         0.41416
C         -5.12553         1.52337         0.64627
C         -3.99720         0.90262         1.42028
C         -2.67490         1.63544         1.57561
C         -1.40088         0.89603         1.86392
C         -0.05216         1.63195         1.94909
C          1.16900         0.90287         1.36939
C          2.50704         1.59003         1.69905
C          3.81985         0.80399         1.38870
C          4.88496         1.69040         0.73177
C          6.03385         1.00279         0.07116
C          7.38614         1.64469         0.02058
C          8.40796         1.24959        -1.00917
C          9.80486         1.67493        -0.67904
C         10.87290         0.75617        -1.07381
C         -9.51830         2.53701        -2.03326
C         -8.32630         3.31164        -1.71051
C         -7.09264         2.45485        -1.50919
C         -5.79408         3.20306        -1.26726
C         -4.79262         2.69898        -0.24936
C         -3.64571         3.59822         0.18914
C         -2.56991         3.06744         1.09945
C         -1.18652         3.69745         1.08436
C         -0.05184         3.14763         1.96882
C          1.27808         3.96197         2.08712
C          2.53646         3.09667         1.81730
C          3.75496         3.83038         1.29855
C          5.09476         3.07091         1.36048
C          6.23458         3.80369         0.64275
C          7.52917         3.07261         0.43244
C          8.71497         3.86020        -0.15237
C          9.94465         2.94929        -0.21544
C         -8.30608         4.66752        -1.73996
C         -7.05298         5.50433        -1.71709
C         -5.76628         4.66239        -1.66433
C         -4.50649         5.40874        -1.41611
C         -3.32956         4.69954        -0.79704
C         -2.04743         5.46358        -0.70716
C         -0.99464         4.95850         0.27332
C          0.03629         5.93018         0.75538
C          1.22664         5.38820         1.50229
C          2.53040         6.15380         1.42683
C          3.75111         5.32087         1.11904
C          5.06613         6.05631         0.99344
C          6.28161         5.28569         0.57880
C          7.58173         6.01725         0.48887
C          8.86452         5.18783         0.63622
C         -7.06316         6.64502        -0.72016
C         -5.78752         7.19616        -0.15384
C         -4.61636         6.86540        -1.07457
C         -3.35256         7.63834        -0.97049
C         -2.05744         6.90484        -1.35885
C         -0.76859         7.75425        -1.05339
C          0.06432         7.31668         0.16364
C          1.25594         8.18557         0.41599
C          2.53726         7.56582         0.90389
C          3.74753         8.08400         0.10155
C          5.06568         7.47097         0.54656
C          6.29554         8.09326        -0.10499
C          7.57005         7.35012         0.27083
C         -5.79418         8.67469         0.15997
C         -4.66736         9.40312         0.20477
C         -3.28742         8.80971         0.00039
C         -2.23883         9.77028        -0.48410
C         -1.00070         9.25203        -0.85150
C          0.18931         9.99647        -0.93472
C          1.46810         9.25760        -0.67673
C          2.64531        10.16173        -0.39762
C          3.79517         9.59593         0.04725
C          5.08037        10.25639         0.26567
C          6.25097         9.57720         0.23439
C        -10.41029        -1.03358        -2.53134
C         -9.66180        -1.66896        -1.41888
C         -8.67216        -0.83662        -0.66392
C         -7.72428        -1.51935         0.33767
C         -6.52638        -0.66657         0.85506
C         -5.31543        -1.33705         1.47891
C         -4.07415        -0.52069         2.03746
C         -2.72274        -1.31066         2.06738
C         -1.43182        -0.60017         1.68579
C         -0.13425        -1.35137         1.62047
C          1.18627        -0.61289         1.64557
C          2.43729        -1.35050         1.23579
C          3.54451        -0.51416         0.63950
C          4.66843        -1.15044        -0.12941
C          6.00230        -0.49435         0.11421
C          7.24549        -1.27276         0.25323
C          8.59296        -1.08728        -0.00490
C          9.58830        -1.46209        -1.02375
C         10.73069        -0.56585        -1.35118
C         -9.46752        -3.13237        -1.36730
C         -8.32852        -3.69737        -0.88736
C         -7.14504        -2.88721        -0.33729
C         -6.35664        -3.63456         0.76618
C         -5.24508        -2.86370         1.48084
C         -3.98758        -3.59691         1.89386
C         -2.70322        -2.81924         2.14644
C         -1.40211        -3.58741         2.08334
C         -0.08877        -2.84878         1.80357
C          1.13553        -3.56786         1.25236
C          2.54798        -2.89560         1.13040
C          3.50168        -3.44074         0.03352
C          4.65147        -2.61422        -0.49231
C          5.57041        -3.09818        -1.61319
C          6.87355        -2.36993        -1.95672
C          8.12336        -3.19580        -2.09981
C          9.35316        -2.71913        -1.79139
C         -8.19567        -5.14340        -0.93008
C         -7.20206        -5.82134        -0.30779
C         -6.24394        -5.11742         0.59891
C         -4.86522        -5.76542         0.73447
C         -3.91218        -5.12515         1.74459
C         -2.64861        -5.89470         2.05722
C         -1.36168        -5.08637         2.15926
C         -0.22061        -5.73091         1.36910
C          0.86996        -4.94393         0.67084
C          1.90387        -5.54821        -0.29890
C          3.14105        -4.70856        -0.69430
C          4.22913        -5.31619        -1.56334
C          5.49779        -4.55663        -1.93827
C          6.74501        -5.30934        -2.24317
C          7.92362        -4.52978        -2.81906
C         -7.25821        -7.32982        -0.22044
C         -5.85908        -7.97156        -0.22852
C         -4.93012        -7.29057         0.78838
C         -3.76252        -8.08462         1.26594
C         -2.54481        -7.45324         1.95493
C         -1.24146        -8.05093         1.45520
C         -0.04475        -7.21985         1.56745
C          0.71429        -7.99858        -0.60734
C          1.84179        -6.99269        -0.80202
C          3.15366        -7.64553        -1.17678
C          4.32546        -6.81767        -1.59530
C          5.72350        -7.35628        -1.24912
C          6.81363        -6.63478        -2.00936
C         -5.95211        -9.45860         0.04664
C         -4.88611       -10.15384         0.46279
C         -3.55570        -9.45390         0.59734
C         -2.45141       -10.25676         1.31190
C         -1.18120        -9.42726         1.15107
C         -0.05123       -10.06082         0.59787
C          1.03323        -9.34606        -0.01991
C          2.30060        -9.84869        -0.15345
C          3.47399        -8.93598        -0.40503
C          4.69245        -9.59811        -1.00200
C          5.73680        -8.86057        -1.40454
O          3.46541         4.42279        -0.00030
O         -6.99565        -4.53391         1.71681
O          3.11967        -4.61219        -2.14709
O          1.08702        -7.63852         1.87708
O          5.24500         7.14510         1.94432
O          7.90550         2.01811         1.34297
O          4.99324         1.65111        -0.70561
O         -4.27710         7.83543        -2.08505
O         -3.68375        -5.65611         3.06504
O          0.03136         7.61894        -2.23556
O          6.81446        -1.23348        -2.39154
O         -3.61008         3.97422         1.58587
O          5.10058        -3.52475        -2.91876
O         -4.85903         4.98862        -2.76067
O          3.59582         7.67887        -1.26777
O          6.55181        -1.02294         1.43333
O         -0.12347         2.37932         3.19586
O         -2.65425        -1.99939         3.34177
O        -10.02748        -0.94328        -0.17310
O         -6.44940        -0.85771         2.28709
O          8.09694         0.84740        -2.11738
O          1.31109        -5.91606        -1.58132
O          2.15213        -0.99493         2.64475
O          4.84690        -3.51806         0.62417
O          3.60810        -0.41707        -0.80347
O          9.65900        -1.77632         0.51443
O          5.91934         4.48123        -0.60430
O         -0.49797         3.68016        -0.22260
O          2.69515         7.29583         2.31063
O         -0.88341        -1.01006         0.38433
O          3.56226        -7.57940        -2.57194
O         -6.92140         1.65121        -2.75488
O         -2.26266         4.43971        -1.72841
O         -2.24431         1.37364         2.93980
O         -7.57907         1.60627         0.87588
O          0.87311        -3.42742         2.69336
O         -1.19934        -4.34669         3.35709
O          0.09037         8.33966         1.23630
O         -5.04136        -3.30817         2.84912
O         -4.98746         1.79071         2.06171
O          0.13536         6.04883         2.19857
O          2.68774         2.22163         2.98461
O         -0.38025        -7.76776        -1.08381
O         -6.27529        -2.47847        -1.29555
O         -4.96966        -7.93441         2.08628
O         -7.41139         0.27125        -2.46972
O         -0.42804        -5.16515         0.03200
O         -4.65246         2.39494        -1.66381
O          8.42209         4.25089        -1.50637
H          8.12292         3.47073        -2.02019
O          1.80303         8.29139        -1.78510
H          2.00069         8.77450        -2.62273
O          3.83109        -8.50357         0.95902
H          3.00223        -8.28296         1.44916
O         -7.94497        -7.70131         0.97864
H         -7.51421        -7.26158         1.74185
O         -8.49387        -1.93274         1.42762
H         -7.93200        -1.90261         2.24126
O         -2.84511         8.25881         1.27904
H         -1.97394         8.64101         1.53023
O          1.41352         4.30676         3.48156
H          1.34858         3.47565         4.00486
O          9.13512         4.91299         2.01047
H          8.49253         4.25474         2.34926
O          5.49637         2.94756         2.72779
H          5.07206         2.13976         3.11262
O          6.19413         7.97727        -1.54100
H          5.24551         7.78654        -1.77227
O         -7.04129         6.27462        -2.95339
H         -6.10451         6.26281        -3.28379
O          5.97044        -7.02092         0.14246
H          5.37423        -7.57779         0.70435
O         -2.76450       -10.52319         2.66900
H         -2.76818        -9.66334         3.16496
O          4.41135         0.45147         2.65535
H          3.74574        -0.04908         3.18282
O         -2.14284         6.71612        -2.76202
H         -1.22401         6.63213        -3.10843
O         -2.59708        -7.90014         3.34239
H         -3.38245        -7.45533         3.74434
O         -4.33800        -0.31230         3.41913
H         -5.08935         0.31627         3.49535
O          3.24192        -3.29808         2.32165
H          2.71810        -2.99233         3.09669
O         -3.02668        -9.22175        -0.72663
H         -3.67245        -8.67894        -1.24047
O         -4.19684        -5.43278        -0.51736
H         -4.58617        -5.97253        -1.24600
O         -5.26982        -7.75113        -1.54660
H         -5.80698        -8.22978        -2.21353
O          9.11125        -5.30611        -2.79120
H          9.30851        -5.54465        -1.86215
O          1.03713         1.05214        -0.06021
H          0.31223         0.46958        -0.38556
O         -5.50532         6.42480         1.06161
H         -6.04161         6.78649         1.79823
H         11.61335        -1.09115        -1.75308
H         11.86361         1.20750        -1.24653
H         10.94124         3.37591        -0.01899
H          9.72715         5.77413         0.23603
H          8.52119         7.89983         0.18551
H          7.19787        10.12371         0.36507
H          5.07649        11.34654         0.42055
H          2.53937        11.24392        -0.56232
H          0.17691        11.08275        -0.75791
H         -2.37637        10.85677        -0.37064
H         -4.72579        10.47468         0.45304
H         -6.76620         9.15506         0.35507
H         -7.97384         7.26681        -0.70284
H         -9.24260         5.21139        -1.93603
H        -10.37169         3.06215        -2.48748
H        -11.14259         0.79214        -3.35944
H        -11.03778        -1.67037        -3.17194
H        -10.25189        -3.77652        -1.79728
H         -8.97227        -5.70536        -1.47420
H         -7.85093        -7.73856        -1.07926
H         -6.93288        -9.94172        -0.07794
H         -4.95564       -11.23173         0.67122
H         -2.32139       -11.23935         0.79360
H         -0.01270       -11.16208         0.61248
H          2.53138       -10.84792         0.25184
H          4.70622       -10.69482        -1.08779
H          6.63211        -9.34341        -1.82503
H          7.74477        -7.17862        -2.23347
H          7.70209        -4.29996        -3.89597
H         10.23826        -3.32485        -2.05576
