         344
 CSIRO Nanostructure Databank - Neutral Graphene Oxide Data Set
C          1.14914         3.61150        -1.17473
C         -0.00540         4.32924        -1.34494
C          1.16944         6.45455        -1.07044
C          0.00738         5.75500        -1.31244
C          1.18895         7.97593        -1.08370
C         -0.04267         8.61797        -0.48011
C          1.16066        10.78167        -0.56926
C         -0.02988         9.92674        -0.20001
C          1.24555        12.13480         0.11442
C          0.10936        12.77514         0.63315
C          1.27602        14.90636         0.64540
C          0.12361        14.13757         0.90621
C          1.22989        16.36719         0.65396
C          0.01873        17.06718         0.78547
C          1.17124        19.21947         0.72931
C         -0.01475        18.45808         0.78083
C          1.14956        20.66193         0.68478
C         -0.02554        21.38596         0.53103
C          1.17352        23.51542         0.24270
C         -0.02231        22.78291         0.37297
C          1.17245        24.92819        -0.07924
C         -0.02269        25.67676        -0.15135
C          1.17632        27.77883        -0.43359
C         -0.01107        27.07608        -0.26901
C          1.22191        29.20378        -0.36719
C          3.58879         3.55053        -0.90963
C          2.40192         4.28138        -0.96395
C          3.61647         6.41240        -0.71083
C          2.40380         5.73346        -0.88933
C          3.67875         7.83231        -0.59209
C          2.38754         8.52972        -0.26303
C          3.65243        10.70063        -0.44559
C          2.46704        10.02904        -0.40248
C          3.63852        12.21347        -0.70674
C          2.46090        12.85106         0.02799
C          3.68514        15.02345        -0.12539
C          2.46765        14.23181         0.28812
C          3.69181        16.42803         0.41409
C          2.43717        17.11859         0.52959
C          3.66886        19.24965         0.62047
C          2.41945        18.52726         0.66384
C          3.67988        20.65504         0.60076
C          2.42814        21.42466         0.92589
C          3.63697        23.49900         0.17529
C          2.42274        22.83158         0.37578
C          3.64110        24.90580        -0.13949
C          2.42380        25.59102        -0.26305
C          3.69948        27.74811        -0.41398
C          2.43235        27.01426        -0.75743
C          3.67224        29.15521        -0.27850
C          2.41564        29.87205        -0.30815
C          6.04895         3.49205        -0.87907
C          4.86703         4.18336        -0.77540
C          6.12684         6.37242        -0.70252
C          4.86212         5.64530        -0.37924
C          6.17490         7.85054        -0.93583
C          4.87900         8.53393        -0.58338
C          6.11743        10.61979        -0.12867
C          4.90969         9.95902        -0.38908
C          6.01838        12.03885         0.36860
C          5.05459        12.87876        -0.47941
C          6.10919        14.89046         0.59074
C          4.97365        14.28402         0.10336
C          6.06475        16.30250         1.17533
C          4.87933        17.08979         0.66120
C          6.13479        19.21030         0.48727
C          4.90388        18.52484         0.64012
C          6.12395        20.62393         0.29602
C          4.89412        21.35256         0.40820
C          6.10906        23.45515         0.05270
C          4.89196        22.77532         0.23862
C          6.11249        24.88140        -0.14974
C          4.90541        25.60575        -0.26603
C          6.18128        27.76011        -0.36259
C          4.93084        27.04509        -0.36414
C          6.13522        29.19883        -0.08014
C          4.87194        29.82891        -0.01660
C          8.60364         3.46788        -0.60524
C          7.36913         4.20739        -1.01449
C          8.62471         6.33073        -0.19312
C          7.31532         5.60840        -0.40747
C          8.59768         7.81691        -0.19738
C          7.39736         8.52640        -0.33735
C          8.59336        10.62646         0.22583
C          7.37151         9.92600        -0.08587
C          8.58681        12.03328         0.47111
C          7.35553        12.75135         0.48282
C          8.55825        14.85013         1.17146
C          7.32933        14.12531         0.69772
C          8.56637        16.26801         0.56742
C          7.42618        17.10790         1.17005
C          8.59250        19.11287         0.24044
C          7.39317        18.48841         0.51918
C          8.58493        20.54057        -0.28319
C          7.33975        21.31942         0.06439
C          8.59749        23.44807        -0.06495
C          7.34855        22.72389         0.01899
C          8.59365        24.83225        -0.21947
C          7.35795        25.56360        -0.30729
C          8.66407        27.60652        -0.65973
C          7.37029        26.97255        -0.50391
C          8.55779        29.76010        -0.03490
C          7.22632        30.02856         0.33329
C         11.08536         3.46472        -0.54833
C          9.83222         4.15819        -0.52414
C         11.11511         6.36338        -0.58174
C          9.84359         5.58769        -0.43925
C         11.04226         7.71488         0.12116
C          9.80680         8.51391         0.01670
C         11.09347        10.61212         0.40659
C          9.83141         9.90719         0.22283
C         11.09784        12.01726         0.59390
C          9.84065        12.74975         0.66626
C         11.09698        14.86013         1.32329
C          9.84411        14.10526         0.94410
C         11.08496        16.31234         0.85399
C          9.88962        17.00060         0.67492
C         11.09118        19.10261         0.31146
C          9.87454        18.41239         0.39438
C         11.13458        20.55372        -0.14153
C          9.84111        21.31851         0.02157
C         11.11338        23.44007         0.14364
C          9.84811        22.69331         0.03805
C         11.12099        24.86018         0.01195
C          9.89629        25.54772        -0.50536
C         11.01626        27.84589         0.31756
C          9.85531        27.04365        -0.29377
C         11.00420        29.39791         0.03862
C          9.79265        30.12979         0.45335
C         13.56971         3.46040        -0.32037
C         12.31983         4.15170        -0.34241
C         13.52472         6.23762         0.40828
C         12.31626         5.55510        -0.17317
C         13.58689         7.69843        -0.08342
C         12.33050         8.43910         0.32568
C         13.56783        10.58710         0.40208
C         12.32759         9.91099         0.35138
C         13.55269        11.97841         0.63925
C         12.33832        12.70226         0.75523
C         13.57352        14.84187         0.96427
C         12.36976        14.12974         0.97816
C         13.57347        16.30597         0.91937
C         12.33169        17.01251         0.79082
C         13.58732        19.11636         0.55583
C         12.33411        18.42101         0.53953
C         13.63720        20.60094         0.24612
C         12.28271        21.25847         0.58658
C         13.55020        23.45903         0.35425
C         12.31133        22.75307         0.35593
C         13.54496        24.87924         0.21225
C         12.30603        25.59362         0.09239
C         13.53697        27.63805         0.38449
C         12.32850        27.06751         0.13533
C         13.42986        29.72618        -0.35421
C         12.05107        30.18622        -0.36890
C         16.06582         3.45487        -0.25976
C         14.81381         4.14498        -0.16333
C         16.05829         6.22717         0.57241
C         14.81226         5.52396         0.12304
C         16.06263         7.71925         0.32244
C         14.85499         8.43358         0.26880
C         16.07039        10.55640         0.17873
C         14.83955         9.84693         0.29719
C         15.99927        11.99705         0.26583
C         14.85099        12.64978         0.98856
C         16.02862        14.85009         0.68432
C         14.82111        14.15200         0.81932
C         16.11373        16.29898         1.07762
C         14.78744        17.01026         0.88503
C         16.09709        19.13351         0.76165
C         14.78319        18.42287         0.76340
C         16.12188        20.62883         0.76483
C         14.78696        21.35499         0.95786
C         15.99151        23.42341         0.11131
C         14.80022        22.77436         0.44697
C         15.96044        24.82178        -0.12622
C         14.79021        25.54291         0.06735
C         15.80003        27.73404        -0.76373
C         14.88592        27.02720         0.22893
C         15.72908        29.08887        -1.13749
C         14.46801        29.85767        -1.21796
C         18.55221         3.45917        -0.25927
C         17.29523         4.14240        -0.12689
C         18.53448         6.24447         0.25226
C         17.31638         5.53778         0.14528
C         18.54300         7.67577         0.39885
C         17.29788         8.41092         0.29892
C         18.61236        10.46556         0.11943
C         17.31222         9.82578         0.11614
C         18.79005        11.80431        -0.28868
C         16.98223        12.83496        -0.22025
C         18.48278        14.81318         0.10894
C         17.18880        14.17777         0.22533
C         18.49897        16.25382         0.15461
C         17.30617        16.98804         0.44392
C         18.48860        19.08421        -0.00858
C         17.30284        18.37551         0.33295
C         18.43597        20.53747        -0.26383
C         17.27169        21.33572         0.14640
C         18.47357        23.44008        -0.38338
C         17.25198        22.69980        -0.06033
C         18.44454        24.84267        -0.61706
C         17.12149        25.49896        -0.74664
C         18.26471        27.69295        -1.45869
C         17.00471        26.94668        -1.14074
C         18.19234        29.16642        -1.48592
C         16.91636        29.76847        -1.53400
C         19.73998         4.12300        -0.07595
C         20.98113         6.22819         0.41477
C         19.76840         5.52743         0.18747
C         20.97835         7.59043         0.64241
C         19.77158         8.34682         0.58826
C         20.92990        10.58439         0.86849
C         19.78768         9.79830         0.57209
C         20.92345        11.97363         0.75453
C         19.83081        12.63773         0.14449
C         20.91192        14.83892        -0.16251
C         19.71473        14.09894        -0.00163
C         20.91237        16.21520        -0.25417
C         19.71471        16.96221        -0.08677
C         20.94309        19.15533        -0.21528
C         19.70807        18.39864        -0.14876
C         20.98061        20.51040        -0.28335
C         19.75641        21.29550        -0.48252
C         20.90960        23.53053        -0.45458
C         19.72840        22.77348        -0.38098
C         20.86736        24.90967        -0.63339
C         19.63754        25.57944        -0.77228
C         20.73257        27.91905        -0.93614
C         19.61261        27.01313        -1.20059
C         20.62287        29.26808        -1.18397
C         19.39009        29.89318        -1.50170
O         19.04293        27.15154        -2.55519
O         18.93165        20.85096        -1.60923
O          8.64364        28.90661        -1.14867
O         13.64422        28.96394         0.82483
O          3.30029        12.44705        -2.07960
O         16.45134        19.88582         2.00074
O         16.74751        25.88448        -2.13461
O          7.83167         5.73977         0.96414
O         17.86131        12.33746        -1.19374
O         11.62090         7.81615         1.45022
O          4.87490         5.64020         1.10957
H          5.77772         5.37220         1.39961
O          1.32240         8.36947        -2.46074
H          1.18262         9.35640        -2.50998
O         13.95618        20.74668        -1.15403
H         13.14093        20.55313        -1.67865
O         13.40298         6.18016         1.86062
H         14.30717         6.32580         2.24281
O         11.24602         6.69993        -2.01702
H         11.35276         5.85893        -2.51022
O         15.04917        12.41916         2.43496
H         14.23160        12.71403         2.89050
O         16.07155         6.11144         2.08201
H         16.28956         5.17699         2.29257
O          7.80230        17.39756         2.53520
H          7.04515        17.85592         2.95828
O          2.47850        21.60288         2.40231
H          1.66839        22.09509         2.65654
O         13.63091         7.60599        -1.53462
H         13.61197         8.51255        -1.90608
O          5.73166        16.08605         2.58106
H          6.53237        15.67482         2.98775
O         16.39253        16.31591         2.51821
H         15.68552        15.80096         2.96178
O         11.10054        14.94081         2.79651
H         10.25270        15.37644         3.05711
O          6.34216         8.03904        -2.39507
H          6.17523         8.98640        -2.59071
O          5.66958        13.01098        -1.77081
H          4.91148        12.88199        -2.41469
O          5.45851        11.97436         1.71650
H          5.99296        11.34022         2.23851
O          1.03275        11.05922        -2.00228
H          1.83547        11.63019        -2.24107
O          8.30643        16.08077        -0.84044
H          8.28378        16.96144        -1.27214
O          3.56264        15.15943        -1.58268
H          3.39474        14.23516        -1.94207
O          2.44403        26.90738        -2.24222
H          3.24140        26.38969        -2.48574
O         10.72951        27.76296         1.75238
H         11.49578        28.15145         2.22587
O         11.36395        20.52449        -1.58458
H         10.49434        20.29234        -1.99904
O         11.98093        21.03814         1.98367
H         12.77830        21.31726         2.50210
O          2.09128         8.19918         1.12678
H          2.89805         8.36363         1.65824
O         10.04414        25.41599        -1.98366
H          9.30618        25.91103        -2.40091
O          7.52272         4.49723        -2.45720
H          7.53878         3.64062        -2.93403
O         14.53768        21.44594         2.38145
H         15.12854        20.77278         2.80711
O         15.59335        27.24963         1.50608
H         15.34949        28.15893         1.79362
O          8.58438        20.39601        -1.77177
H          8.35626        21.27542        -2.14525
O          8.40203        14.95671         2.63364
H          8.42499        14.04299         2.99145
H          1.13727         2.51264        -1.21600
H         -0.95791         3.80929        -1.52003
H         -0.93635         6.29119        -1.48439
H         -0.92758         8.00791        -0.24217
H         -0.92476        10.39645         0.23314
H         -0.83357        12.22657         0.75996
H         -0.80091        14.61724         1.25455
H         -0.93063        16.52209         0.87016
H         -0.98937        18.95950         0.85224
H         -0.99286        20.86775         0.47412
H         -0.99070        23.28627         0.25485
H         -0.99121        25.17948        -0.00940
H         -0.95598        27.62925        -0.15921
H          0.27365        29.75827        -0.30035
H          3.55400         2.46124        -1.06871
H          2.43840        30.96768        -0.22058
H          6.02267         2.40468        -1.06294
H          4.83674        30.90702         0.19982
H          8.59248         2.36823        -0.56009
H          6.98860        30.92173         0.93058
H         11.09178         2.37152        -0.66319
H          9.90334        30.96264         1.16455
H         13.57921         2.37213        -0.48169
H         11.85021        31.25020        -0.57753
H         16.06975         2.37506        -0.46664
H         14.36166        30.51862        -2.09090
H         18.54738         2.38132        -0.47740
H         16.85250        30.84862        -1.73456
H         20.69301         3.57754        -0.13987
H         21.93111         5.67429         0.40307
H         21.93344         8.10900         0.80435
H         21.83014        10.09549         1.26580
H         21.79100        12.54886         1.10764
H         21.86101        14.29446        -0.26648
H         21.86242        16.73004        -0.44705
H         21.89418        18.61581        -0.10977
H         21.94483        21.03047        -0.19240
H         21.88642        23.02828        -0.43337
H         21.81000        25.46309        -0.74269
H         21.66922        27.51806        -0.52338
H         21.50641        29.90789        -1.04444
H         19.35670        30.98683        -1.60933
