         651
 CSIRO Nanostructure Databank - Neutral Graphene Oxide Data Set
C          5.82672        31.85693         1.08594
C          5.81613        33.21903         1.13439
C          8.29920        27.52614         1.01911
C          8.30420        28.96589         1.08782
C          7.07698        29.71065         1.01948
C          8.29373        31.84696         0.92184
C          7.05875        31.10058         1.01212
C          8.26865        33.24393         0.89354
C          7.03806        33.99695         1.04605
C          8.25199        36.20398         0.98903
C          7.02551        35.38180         1.08348
C          8.29728        37.61678         1.44699
C         10.77453        23.19129         0.74130
C         10.70700        24.60055         0.81514
C          9.50617        25.33056         0.88850
C         10.70554        27.43107         1.49367
C          9.45998        26.75058         1.07876
C         10.74574        28.95297         1.51319
C          9.51585        29.68773         1.17371
C         10.76979        31.80481         0.99780
C          9.55032        31.11648         0.98922
C         10.82036        33.22743         0.62907
C          9.50342        33.97854         0.59973
C         10.78298        36.05873         1.38701
C          9.54146        35.47239         0.77563
C         10.74335        37.50125         1.80589
C          9.48702        38.28621         1.65207
C         10.79232        40.39778         1.93024
C          9.58368        39.71637         1.74280
C         10.83085        41.80991         1.62995
C         13.27080        18.92652         0.47820
C         13.23628        20.32434         0.50178
C         12.02962        21.06839         0.58264
C         13.25859        23.21948         0.83102
C         12.00124        22.47632         0.68441
C         13.24567        24.59341         0.86954
C         11.98831        25.38335         0.60735
C         13.28429        27.46654         1.38556
C         12.00045        26.69120         1.38385
C         13.23707        28.93700         1.31812
C         12.05698        29.62406         1.35977
C         13.31833        31.83215         1.21903
C         12.02619        31.10703         1.33179
C         13.39044        33.27745         0.86044
C         12.10252        34.02509         0.71707
C         13.26786        36.05171         1.61418
C         12.09748        35.42105         1.18716
C         13.25668        37.48094         1.94817
C         12.03297        38.20292         1.92134
C         13.22674        40.17461         2.54132
C         12.00836        39.59615         2.15269
C         13.25141        42.23943         2.00240
C         11.96068        42.63003         1.46628
C         13.20172        44.44926         0.38494
C         11.98153        43.87120         0.75831
C         13.26678        45.76607        -0.13946
C         15.83261        14.79758        -0.27288
C         15.71254        15.89932         0.73393
C         14.48186        16.77816         0.59242
C         15.81273        18.80649         0.16042
C         14.48087        18.14638         0.48381
C         15.79364        20.33090         0.33784
C         14.51143        21.08512         0.45052
C         15.72772        23.16426         1.04191
C         14.52683        22.50784         0.88616
C         15.77946        24.59694         1.33740
C         14.47249        25.34062         1.19830
C         15.81592        27.47878         1.21125
C         14.52617        26.79527         0.80852
C         15.81953        28.86133         1.23207
C         14.54216        29.59294         1.02566
C         15.83205        31.79118         1.30729
C         14.58100        31.07981         0.99087
C         15.79930        33.19049         1.52348
C         14.58747        33.96374         1.37434
C         15.72375        35.96103         2.24543
C         14.51708        35.31328         1.68977
C         15.74089        37.45879         2.40118
C         14.48296        38.18892         2.13143
C         15.73717        40.41302         2.41406
C         14.48047        39.58040         2.34209
C         15.73359        41.88051         1.93511
C         14.46328        42.51691         1.43600
C         15.77869        44.31672         0.17962
C         14.46106        43.65152         0.49010
C         15.76583        45.78521        -0.08047
C         14.46903        46.45577        -0.35425
C         15.67583        48.53240        -0.96389
C         14.49026        47.83572        -0.65387
C         15.63565        49.90676        -1.30905
C         18.28114        11.01292        -2.19944
C         18.27690        12.27703        -1.49886
C         17.08011        12.94398        -1.24948
C         18.31263        14.73872        -0.07725
C         17.05390        14.16734        -0.51069
C         18.32628        16.02025         0.59325
C         17.02243        16.67634         0.89395
C         18.28703        18.88718         0.87564
C         16.99354        18.16933         0.88605
C         18.31736        20.25728         0.84164
C         17.02191        20.97045         0.91239
C         18.30242        23.17375         0.96456
C         17.02055        22.44256         1.12442
C         18.30075        24.61590         1.09327
C         17.05906        25.33319         1.25343
C         18.28205        27.47932         1.40965
C         17.05123        26.74368         1.31831
C         18.30122        28.87406         1.34256
C         17.04846        29.60577         1.29790
C         18.28871        31.76236         1.36228
C         17.01858        31.01480         1.37247
C         18.24439        33.12087         1.96894
C         17.00363        33.89376         1.87009
C         18.24788        35.98901         2.30815
C         17.01231        35.25136         2.15348
C         18.21958        37.45360         2.31874
C         17.03957        38.16555         2.34596
C         18.29690        40.30691         1.88150
C         17.05064        39.65557         2.37292
C         18.28487        41.65745         1.40617
C         17.04826        42.47714         1.43148
C         18.26047        44.32893         0.24085
C         17.05196        43.72053         0.62229
C         18.30488        45.59579        -0.46243
C         17.06804        46.44299        -0.50032
C         17.82848        48.34206        -2.01095
C         16.92184        47.78062        -1.15858
C         17.94260        49.79479        -2.34737
C         16.77166        50.58671        -1.79548
C         18.08779        52.54851        -2.53208
C         16.85268        51.94272        -2.08454
C         18.07462        53.82479        -3.06103
C         20.61385         8.19768        -5.36714
C         20.61941         8.77993        -4.14559
C         19.33379         9.13180        -3.43641
C         20.71668        11.02847        -2.38329
C         19.43918        10.40514        -2.62183
C         20.77706        12.07312        -1.29221
C         19.51551        12.87927        -1.11057
C         20.83130        14.89125        -0.31914
C         19.53070        14.11184        -0.44539
C         20.82940        15.93177         0.82245
C         19.51380        16.69292         0.82328
C         20.81076        18.90109         1.22252
C         19.49916        18.12012         1.18646
C         20.77789        20.35331         0.94784
C         19.54426        21.01485         0.90071
C         20.74414        23.16648         0.51495
C         19.48724        22.45733         0.79865
C         20.74754        24.68932         0.74530
C         19.50884        25.31753         1.17013
C         20.82730        27.45271         1.39390
C         19.55026        26.71291         1.73231
C         20.79084        28.90903         1.47672
C         19.58029        29.57248         1.37640
C         20.88240        31.78597         1.52994
C         19.59263        31.04453         1.26296
C         20.83175        33.23436         1.90503
C         19.51680        33.86393         2.23437
C         20.77748        36.01192         2.05066
C         19.46182        35.32505         2.28353
C         20.71709        37.48626         2.30044
C         19.49120        38.15908         2.22485
C         20.73328        40.01376         1.20969
C         19.47520        39.55637         1.90398
C         20.73448        41.49288         0.86400
C         19.46602        42.26117         0.92818
C         20.75436        44.28330         0.33419
C         19.49615        43.61345         0.50160
C         20.75999        45.55843        -0.25873
C         19.58167        46.11137        -0.78933
C         20.72755        48.26962        -1.25524
C         19.76884        47.34932        -1.53696
C         20.59199        49.73357        -1.52061
C         19.28359        50.42518        -1.86030
C         20.57540        52.44358        -2.54013
C         19.35110        51.83538        -2.33683
C         20.63981        53.87395        -2.93484
C         19.30597        54.58395        -3.26760
C         20.57047        56.30280        -4.56129
C         19.35631        55.72981        -4.16278
C         20.59004        57.50626        -5.31087
C         23.05840         6.95892        -7.99311
C         21.84734         7.41991        -7.35278
C         23.03158         7.54130        -5.17925
C         21.81468         7.70797        -6.01888
C         23.11156         8.34605        -3.91160
C         21.86850         9.06766        -3.33808
C         23.07589        11.37152        -2.91108
C         21.88692        10.56538        -2.98461
C         23.14110        12.49724        -2.00057
C         22.02522        12.90655        -1.28978
C         23.31821        14.90280        -0.42345
C         22.10588        14.00887        -0.26404
C         23.33038        16.18103         0.27113
C         22.08016        16.79923         0.73216
C         23.28210        18.94800         0.90977
C         22.06784        18.15750         0.98080
C         23.25804        20.31142         0.72597
C         22.01782        21.06264         0.73856
C         23.27401        23.20205         0.42032
C         22.03211        22.45080         0.55049
C         23.14733        24.70610         0.09395
C         22.09824        25.32517         1.07758
C         23.26826        27.67127         0.94982
C         22.00039        26.82781         1.09199
C         23.23002        28.73546         2.09406
C         22.03671        29.62340         1.76424
C         23.24304        31.67011         2.55092
C         22.07665        30.98037         1.87699
C         23.30677        33.17131         2.22229
C         22.02032        33.91980         2.47464
C         23.15083        36.02561         3.12155
C         21.96750        35.26778         2.63555
C         23.14957        37.53174         2.97364
C         21.96275        38.20887         2.36251
C         23.18625        40.32391         1.98062
C         21.99168        39.51827         1.91815
C         23.21981        41.61295         1.50855
C         22.03272        42.25759         0.92472
C         23.19114        44.47416         0.78203
C         21.99060        43.71380         0.76515
C         23.22713        45.76071         0.22163
C         22.03862        46.29617        -0.53197
C         23.18405        48.49637        -0.78070
C         21.88016        47.82004        -0.37488
C         23.13575        49.80895        -1.41493
C         21.86500        50.47168        -1.73672
C         23.08027        52.48862        -2.56849
C         21.82539        51.74523        -2.29220
C         23.06758        53.68677        -3.44990
C         21.85878        54.40360        -3.58346
C         23.04399        56.15815        -4.81036
C         21.82862        55.62436        -4.28923
C         23.03613        57.39312        -5.52832
C         21.79848        58.07397        -5.77115
C         23.01817        59.83391        -6.94823
C         21.81631        59.30030        -6.49013
C         24.20610         6.78197        -7.30758
C         25.50584         7.90729        -5.53295
C         24.32745         6.99533        -5.81636
C         25.60780         8.69504        -4.42403
C         24.51657         8.64083        -3.37885
C         25.50488        11.54502        -3.27668
C         24.21014        11.13962        -3.71891
C         25.57052        12.62973        -2.37111
C         24.39526        13.20401        -1.85495
C         25.64950        15.28144        -1.22092
C         24.41363        14.46476        -1.14893
C         25.74586        16.42487        -0.25569
C         24.52329        16.85946         0.44045
C         25.81550        18.99124         0.85625
C         24.56181        18.19337         1.15807
C         25.78797        20.33453         0.60657
C         24.49128        21.01770         0.21281
C         25.74878        23.23886         0.21204
C         24.46413        22.52260         0.38663
C         25.77371        24.74951         0.15233
C         24.49259        25.58523         0.04700
C         25.72891        27.48604         1.09571
C         24.53399        26.83408         0.91929
C         25.71612        28.94521         1.42060
C         24.60144        29.49515         2.30181
C         25.72513        31.74816         2.22685
C         24.56151        31.00680         2.23409
C         25.71891        33.18536         2.54388
C         24.54253        33.85062         2.75450
C         25.72429        36.02186         3.29843
C         24.42869        35.20541         3.43310
C         25.74556        37.57058         3.18552
C         24.43731        38.32313         3.05103
C         25.70549        40.37867         2.12370
C         24.43194        39.75618         2.58982
C         25.68974        41.64889         1.63980
C         24.41831        42.45354         1.87931
C         25.73890        44.51694         0.83775
C         24.43827        43.87633         1.31066
C         25.67828        45.80948         0.13323
C         24.44455        46.47195        -0.00565
C         25.67177        48.49670        -0.76817
C         24.37787        47.83321        -0.53057
C         25.63082        49.83495        -1.45359
C         24.32679        50.41073        -1.79691
C         25.61433        52.23381        -3.04206
C         24.37582        51.76372        -2.37094
C         25.49386        53.31612        -4.08858
C         24.26333        54.18902        -3.99248
C         25.50466        56.00754        -5.14434
C         24.26478        55.43850        -4.65019
C         25.47898        57.24380        -5.79693
C         24.25887        57.94179        -6.02087
C         24.22764        59.17220        -6.72335
C         26.74248         9.59505        -4.28446
C         27.96931        11.56036        -3.53220
C         26.72848        10.87084        -3.71786
C         28.08314        12.70528        -2.73752
C         26.90201        13.16222        -1.90032
C         28.20067        15.16338        -1.24443
C         26.89859        14.69304        -1.86894
C         28.27516        16.14149        -0.24496
C         27.07282        16.83485         0.30816
C         28.34447        19.03855         0.91396
C         27.09615        18.24310         0.94781
C         28.30119        20.41843         0.63699
C         27.01771        21.11990         0.56250
C         28.27823        23.23832         0.74421
C         26.99143        22.49258         0.51187
C         28.24003        24.74088         0.53628
C         27.03025        25.45718         0.52719
C         28.23199        27.57524         0.91202
C         27.01626        26.85807         0.81314
C         28.27882        28.99887         1.24630
C         26.99696        29.72731         1.42973
C         28.21267        31.77446         2.17299
C         27.02061        31.10439         2.00482
C         28.27679        33.18952         2.54364
C         26.98887        33.97149         2.31992
C         28.19416        36.07206         3.11289
C         26.94793        35.32773         2.95494
C         28.18585        37.52677         2.79077
C         27.00613        38.21799         2.72362
C         28.10927        40.07962         1.45685
C         27.02618        39.72981         2.49250
C         28.15428        41.53220         1.07331
C         26.83303        42.19131         0.81092
C         28.09330        44.21241         0.08680
C         26.94341        43.68590         0.68717
C         28.10599        45.59724        -0.38726
C         26.90646        46.36695        -0.36235
C         28.11845        48.29367        -1.27297
C         26.91689        47.69708        -0.85169
C         28.10854        49.71659        -1.70676
C         26.80872        50.17656        -2.33847
C         28.05955        52.14231        -3.38322
C         26.80385        51.59360        -2.85794
C         28.00093        53.39708        -4.06648
C         26.78808        54.05933        -4.31838
C         26.73736        55.32483        -4.91332
C         29.29151        13.40060        -2.58561
C         30.66258        15.11481        -1.42104
C         29.40169        14.55168        -1.73647
C         30.76282        16.13439        -0.45111
C         29.56693        16.43696         0.25049
C         30.78257        19.02156         0.48866
C         29.60694        18.42409         0.97630
C         30.72549        20.40944         0.23784
C         29.51317        21.10103         0.37292
C         30.72687        23.30370         0.38251
C         29.45465        22.57390         0.03477
C         30.71122        24.66333         0.52769
C         29.47211        25.42381         0.59521
C         30.68994        27.53927         0.96324
C         29.47939        26.85957         0.76857
C         30.75815        29.04650         0.94616
C         29.46379        29.67881         1.40841
C         30.78810        31.70736         2.35046
C         29.49621        31.10851         1.82405
C         30.72173        32.99078         3.22082
C         29.45536        33.80519         2.88234
C         30.74710        36.05805         2.94036
C         29.46970        35.28549         3.14971
C         30.73140        37.41633         2.34947
C         29.49100        38.19914         2.51746
C         30.65660        40.08224         1.21671
C         29.45816        39.57139         1.90601
C         30.58861        41.34748         0.58698
C         29.31572        42.08673         0.53962
C         30.41369        43.88904        -0.81749
C         29.26474        43.39592        -0.04485
C         30.42091        45.31080        -1.27927
C         29.27138        46.17100        -0.94736
C         30.57187        48.17352        -1.73336
C         29.31230        47.53720        -1.32668
C         30.58648        49.50362        -2.19510
C         29.38774        50.33208        -2.25018
C         29.26384        51.48521        -3.15686
C         31.96513        16.90831        -0.21166
C         33.22022        19.00134         0.12787
C         31.99164        18.25114         0.17383
C         33.25254        20.39509         0.11922
C         31.97439        21.17404        -0.13998
C         33.26345        23.25948         0.53259
C         31.96950        22.48993         0.63825
C         33.25085        24.60694         0.72757
C         32.01254        25.41434         0.36463
C         33.22898        27.48202         1.23291
C         31.93556        26.77203         1.04356
C         33.23889        28.93980         1.42700
C         32.00394        29.61106         1.60131
C         33.24723        31.21210         2.85184
C         31.99541        30.80865         2.33387
C         33.23155        33.33014         3.41116
C         32.01666        33.83045         3.08860
C         33.23540        35.94683         2.38232
C         32.01601        35.30239         2.91157
C         33.15522        37.25708         1.83575
C         31.87772        37.98110         1.81844
C         33.04055        39.93350         0.76157
C         31.86074        39.34107         1.26729
C         33.01302        41.24219         0.24149
C         31.78079        41.91921         0.09726
C         33.00516        43.91434        -0.90162
C         31.74054        43.16048        -0.70242
C         32.99945        45.22973        -1.30529
C         31.76957        45.98773        -1.58403
C         31.77470        47.44264        -1.64283
C         34.46778        21.11922         0.23699
C         35.74244        23.23838         0.40395
C         34.51576        22.52159         0.41237
C         35.80105        24.63174         0.63493
C         34.52981        25.30419         1.10734
C         35.75973        27.54048         0.85364
C         34.47949        26.78304         0.81077
C         35.73430        28.95847         1.26601
C         34.47143        29.60564         1.58043
C         35.64909        31.72411         2.25909
C         34.47340        30.86177         2.25358
C         35.67349        33.07833         2.57589
C         34.58324        33.96268         3.23198
C         35.65039        35.93856         2.12460
C         34.46175        35.28735         2.50655
C         35.59513        37.24862         1.59231
C         34.34444        37.87380         1.39950
C         35.56049        39.94495         0.59628
C         34.29236        39.12078         0.56303
C         35.50333        41.26408         0.16882
C         34.26036        41.92285        -0.11673
C         34.23066        43.22189        -0.60458
C         36.99397        25.36838         0.69224
C         38.19008        27.50385         1.16763
C         37.03121        26.78296         0.93649
C         38.18879        28.94918         1.31143
C         36.90863        29.64853         1.41145
C         38.14985        31.79740         1.81612
C         36.83513        31.15956         1.47582
C         38.15556        33.13280         2.14149
C         36.90367        33.83171         2.35121
C         38.12502        35.95467         1.96317
C         36.90420        35.22555         2.20955
C         38.06915        37.29591         1.57851
C         36.83456        37.96090         1.32346
C         36.78708        39.29422         0.89329
C         39.37232        29.64763         1.37430
C         40.64352        31.79759         1.83099
C         39.40095        31.14747         1.27824
C         40.63931        33.10271         2.17706
C         39.40524        33.88119         2.16346
C         39.37920        35.25399         2.08734
O         19.69508        50.31381        -0.46236
O         33.29522        32.04864         3.96539
O         28.80759        50.64207        -0.87972
O         32.19669        25.62992        -1.00875
O         17.83745        50.06204        -3.72290
O         29.68573        17.10786         1.46786
O         12.72378        31.66766         2.54481
O         30.88112        42.98283        -1.87817
O         25.20711        44.71690         2.22606
O         12.95765        33.72064        -0.45238
O         13.20740        41.43448         3.13973
O         25.92023        23.95148        -1.07589
O         21.06785        32.84571         0.51815
O         16.55741        46.52050         0.89459
O         16.90914        21.50411         2.28335
O         22.80184         6.90243        -3.86934
O         10.13272        33.51674        -0.63783
O         10.58133        36.42289         2.80340
O         14.99387        25.02765         2.51834
O         16.88542        17.43247         2.15671
O         14.55851        30.32310        -0.26960
O         15.25007        20.98950        -0.83663
O         20.13493        18.48856         2.46218
O         16.50931        40.22325         3.62874
O         18.94415        31.59721         0.05901
O         22.80940        36.89608         4.25736
O         18.82662        33.15963         3.32619
O         27.04353        17.02789         1.75469
O         20.04813        54.79408        -1.99044
O         15.10760        43.46541        -0.82379
O         15.54719        36.58393         3.57373
O         30.36344        31.95940         0.98108
O         31.57683        35.98360         4.16289
O         35.04234        27.25347        -0.42445
O         18.84680        47.57952        -2.56057
O         12.79961        26.78271         2.58538
O          8.95595        36.15741        -0.36262
O         32.56481        26.80550         2.37114
O         24.36069        39.42942         4.01338
O         25.53091        16.66846        -1.71092
O         16.00054        18.46187        -1.19097
O         30.87586        45.44090        -2.64790
O         22.63524        24.72441        -1.20397
O         23.50657        33.37868         0.83919
O         28.85050        35.68276         4.41576
O         10.58427        28.15934         2.74429
O         16.50990        42.73983         2.80830
O         25.90996        36.92067         4.46482
O         23.89175        52.75572        -1.36636
O         29.67483        39.41720         3.33174
O         25.88377        49.76014        -0.02593
O         21.51617        41.67830        -0.36629
O         24.73655         8.79568        -2.19263
O         26.09172        29.71648         0.24940
O         20.62931        24.13104        -0.58694
O         25.25777        52.54885        -5.33294
H         26.09833        52.09982        -5.56618
O         29.28626        22.69862        -1.39432
H         30.15465        22.48139        -1.81010
O         18.22971         9.19557        -4.34023
H         18.34007         9.98308        -4.91094
O         15.50823        15.20690         2.01089
H         15.81570        15.82935         2.71058
O         24.62100         5.70223        -5.23388
H         24.15340         5.66997        -4.36618
O         21.67711         8.46157        -2.02395
H         21.86570         7.50129        -2.12435
O         36.58962        31.57455         0.08005
H         37.41533        31.35982        -0.41935
O         24.52938        26.18853        -1.27428
H         23.90890        25.64119        -1.83378
O         22.90972        28.03300         3.31199
H         23.71437        28.07890         3.88725
O         26.95057        34.28067         0.87037
H         26.11940        33.90907         0.49326
O         24.31122        42.60332         3.32248
H         24.85369        43.38847         3.56946
O         31.92104        21.50574        -1.55309
H         32.09808        20.69216        -2.06959
O         20.94632        15.61943        -1.56907
H         20.12756        16.14190        -1.70437
O         24.41851        20.82951        -1.24833
H         24.85356        21.59807        -1.67820
O         11.97003        25.79556        -0.79491
H         12.15322        25.00850        -1.34976
O         24.01818        10.57811        -4.94804
H         24.85599        10.60781        -5.45554
O         14.47369        26.84664        -0.63834
H         14.56088        27.78152        -0.92417
O         21.00458        35.93931         0.59144
H         21.35941        35.04766         0.36566
O         24.33153        34.85074         4.82987
H         24.08324        35.67141         5.31531
O         27.77399        39.34416         0.24028
H         27.15579        39.91158        -0.28392
O         28.57924        23.09254         2.17326
H         27.79757        23.38457         2.68736
O         20.86079        15.23871         2.09190
H         20.84880        15.91786         2.79972
O         27.35335        40.34585         3.75448
H         26.63430        40.13286         4.38905
O         20.85763        11.24046        -0.04687
H         21.38705        10.43918        -0.26169
O         22.49384        24.92526         2.41249
H         22.15183        25.59279         3.04851
O         22.34233        46.09149        -1.95091
H         22.36462        45.12629        -2.12213
O         31.87258        22.08731         2.04406
H         31.61109        22.87086         2.57268
O         19.57165        26.57172         3.20091
H         18.71409        26.17950         3.47375
O         21.60435        48.11986         1.00444
H         21.30702        49.05272         1.06449
O         22.23354        13.35862         1.01978
H         21.60720        12.59390         1.03519
O         20.68832        39.29385        -0.06230
H         21.22281        39.82041        -0.70169
O         34.61526        25.21428         2.57122
H         34.53553        24.26842         2.81728
O         30.90012        29.39211        -0.47385
H         30.07318        29.14233        -0.93889
O         35.08700        34.26582         4.56681
H         34.92622        33.47540         5.12513
O         34.19870        38.62041        -0.82308
H         34.18011        39.40272        -1.41531
O         23.02609        31.51831         3.99112
H         22.54871        30.67598         4.15053
O         24.58302        17.93141         2.59616
H         25.39805        17.40499         2.77403
O         26.89680        15.11687        -3.25172
H         26.54917        16.03853        -3.26451
O         26.44539        41.71607        -0.57864
H         27.11920        42.07925        -1.19680
O         27.10586        12.71473        -0.53716
H         27.06134        11.73571        -0.52415
O         30.58223        32.55810         4.58630
H         30.54897        33.35514         5.15727
O         23.22380        28.39422        -0.29354
H         23.61418        27.80576        -0.98923
O         26.62655        49.33823        -3.52643
H         27.31315        49.57984        -4.18358
O         25.06026        29.20520         3.66917
H         24.78207        29.95407         4.24305
O         39.39417        31.44314        -0.18156
H         39.57241        32.40370        -0.28000
H          4.87958        31.29985         1.14019
H          4.86219        33.75943         1.22280
H          7.33603        27.03005         0.82254
H          6.12493        29.15855         1.02734
H          6.06536        35.90220         1.22231
H          7.35267        38.18306         1.43737
H          9.83556        22.61511         0.75425
H          8.55009        24.78747         0.81517
H          8.67153        40.30252         1.55092
H          9.87532        42.22939         1.27239
H         12.31359        18.37984         0.45243
H         11.07291        20.52262         0.57019
H         11.03944        44.38422         0.51382
H         12.32168        46.31277        -0.27970
H         14.91567        14.36875        -0.70504
H         13.52803        16.26579         0.80675
H         13.53524        48.38154        -0.68797
H         14.67086        50.43518        -1.25700
H         17.31345        10.56033        -2.46193
H         16.12804        12.49962        -1.57547
H         16.01100        52.61201        -1.84182
H         17.11657        54.29759        -3.32509
H         19.65353         8.07520        -5.89332
H         19.11130         8.29044        -2.72198
H         18.41097        56.14264        -4.54635
H         19.64000        58.02132        -5.51774
H         23.02626         6.75694        -9.07340
H         20.94458         7.55936        -7.96389
H         23.01531        60.78529        -7.49837
H         20.86927        59.82517        -6.68005
H         25.10709         6.41470        -7.82046
H         26.32527         7.91878        -6.27033
H         26.41945        57.68231        -6.16258
H         25.16796        59.60199        -7.09708
H         27.69724         9.24795        -4.71149
H         28.87033        11.15031        -4.01514
H         28.94572        53.89249        -4.33736
H         27.67666        55.82444        -5.19613
H         30.19751        13.02405        -3.08551
H         31.56455        14.74687        -1.93102
H         31.51311        49.89598        -2.64044
H         30.18502        51.88619        -3.60647
H         32.90933        16.47963        -0.58521
H         34.17122        18.44493         0.13613
H         33.95555        45.77056        -1.37700
H         32.73625        47.97262        -1.71542
H         35.41401        20.55433         0.24219
H         36.67205        22.69347         0.17448
H         36.43588        41.83822         0.05484
H         35.17959        43.74559        -0.79495
H         37.95246        24.84008         0.56263
H         39.16148        26.98601         1.19078
H         39.00822        37.84309         1.40399
H         37.72588        39.86012         0.78967
H         40.32876        29.10536         1.31889
H         41.58192        31.22283         1.83182
H         41.57124        33.60716         2.47468
H         40.31858        35.82400         2.02775
