         240
 CSIRO Nanostructure Databank - Neutral Graphene Oxide Data Set
C        -11.12398         0.64437         0.82082
C        -10.04988         1.47807         0.24561
C         -8.77405         0.72450        -0.20094
C         -7.53483         1.50059        -0.15277
C         -6.26757         0.79202        -0.42192
C         -5.02174         1.43007         0.13848
C         -3.74223         0.71944        -0.22637
C         -2.51721         1.41665        -0.06863
C         -1.26272         0.74702        -0.15383
C         -0.04581         1.38994         0.20657
C          1.19210         0.72341         0.23012
C          2.43312         1.39868         0.59284
C          3.62627         0.66215         0.86630
C          4.84820         1.33225         1.38457
C          6.15487         0.55766         1.48951
C          7.44324         1.39966         1.53449
C          8.72941         0.60113         1.26915
C          9.99619         1.44377         1.14917
C         11.20069         0.65655         0.70096
C         -9.91011         2.89538         0.56941
C         -8.74377         3.61176         0.27834
C         -7.51749         2.87755        -0.03372
C         -6.25120         3.58221        -0.13886
C         -5.02684         2.91521        -0.11689
C         -3.75680         3.57058        -0.10868
C         -2.55377         2.87209         0.06542
C         -1.31247         3.58530         0.29066
C         -0.11366         2.80322         0.63256
C          1.21667         3.57756         0.83995
C          2.45528         2.81658         0.68216
C          3.76860         3.53273         0.54780
C          4.89086         2.84070         1.31062
C          6.23020         3.61870         1.27236
C          7.25239         2.63028         0.61155
C          8.55275         3.32063         0.22955
C          9.77490         2.68528         0.32225
C         -8.71353         5.03453         0.36948
C         -7.54748         5.79525         0.11956
C         -6.30158         5.05667        -0.24523
C         -5.00300         5.78697        -0.29799
C         -3.67398         5.04388        -0.42435
C         -2.53518         5.71527         0.30821
C         -1.25719         4.97528         0.36087
C         -0.03021         5.71879         0.51374
C          1.19459         5.04187         0.65756
C          2.45338         5.74970         0.55233
C          3.71290         5.01647         0.99397
C          5.00809         5.67404         0.55886
C          6.14447         4.92897         0.50317
C          7.35343         5.47381        -0.12568
C          8.49166         4.63792        -0.28692
C         -7.54650         7.19033         0.07555
C         -6.29149         7.97050         0.14491
C         -4.98868         7.21748         0.14497
C         -3.73107         7.95268        -0.06399
C         -2.50965         7.21486         0.27501
C         -1.21361         7.88174         0.14844
C         -0.04803         7.16192         0.32426
C          1.23631         7.94241         0.42575
C          2.47151         7.09165         0.27000
C          3.73880         7.84704         0.13347
C          5.03956         7.13247         0.29669
C          6.33909         7.78767        -0.17947
C          7.37276         6.77765        -0.59214
C         -6.18226         9.40025        -0.21194
C         -4.98238        10.01080        -0.41074
C         -3.70695         9.31325        -0.28485
C         -2.42098         9.95507        -0.45380
C         -1.22328         9.27456        -0.27913
C          0.05099         9.85802        -0.64059
C          1.23452         9.19930        -0.41852
C          2.48743         9.70313        -0.92146
C          3.69004         9.08635        -0.68331
C          4.91201         9.51534        -1.34014
C          6.09447         8.87372        -1.20537
C        -11.05548        -0.70963         0.83159
C         -9.88260        -1.46185         0.41046
C         -8.70464        -0.74695        -0.02805
C         -7.52265        -1.42869        -0.27261
C         -6.28885        -0.68487        -0.61241
C         -4.98991        -1.38971        -0.57658
C         -3.79720        -0.69144        -0.46622
C         -2.49614        -1.45540        -0.36531
C         -1.25275        -0.63357        -0.78050
C         -0.01235        -1.44081        -0.44206
C          1.23748        -0.69254        -0.18641
C          2.46569        -1.48462         0.12232
C          3.60668        -0.80039         0.80096
C          4.90383        -1.61605         0.80611
C          6.19960        -0.88716         1.03904
C          7.42526        -1.44805         0.47511
C          8.70450        -0.81164         0.76760
C          9.95419        -1.43094         0.25717
C         11.17788        -0.63969         0.33987
C         -9.84024        -2.84292         0.52813
C         -8.65800        -3.59526         0.22608
C         -7.45512        -2.86890        -0.15903
C         -6.29816        -3.55938        -0.49987
C         -5.06691        -2.83621        -0.88831
C         -3.78230        -3.58968        -1.12581
C         -2.50154        -2.80633        -1.06009
C         -1.20956        -3.54378        -1.02243
C          0.00560        -2.81663        -0.56168
C          1.19788        -3.60600        -0.38515
C          2.37903        -2.99360         0.32948
C          3.70483        -3.61950        -0.06741
C          4.88656        -2.93963         0.13116
C          6.16379        -3.38780        -0.57529
C          7.43289        -2.90787         0.14576
C          8.69872        -3.44028        -0.58415
C          9.96125        -2.70509        -0.20652
C         -8.62671        -4.98342         0.33912
C         -7.46680        -5.75729        -0.00004
C         -6.31631        -5.03059        -0.60453
C         -4.99891        -5.78835        -0.81384
C         -3.71324        -5.04795        -0.88478
C         -2.50161        -5.70671        -0.83391
C         -1.23530        -5.01930        -0.94147
C         -0.02509        -5.70110        -0.88243
C          1.21709        -4.96877        -0.67203
C          2.48130        -5.68156        -0.67937
C          3.66973        -4.97881        -0.56063
C          4.96305        -5.66665        -0.82379
C          6.24452        -4.90713        -0.78514
C          7.51377        -5.64900        -0.45424
C          8.70322        -4.92554        -0.31619
C         -7.42113        -7.11859         0.22666
C         -6.21709        -7.93371         0.01653
C         -4.95179        -7.23436        -0.42214
C         -3.63780        -7.71935         0.16584
C         -2.48574        -7.22354        -0.72011
C         -1.15941        -7.78277        -0.30112
C          0.00060        -7.13279        -0.63275
C          1.21364        -7.95537        -0.99868
C          2.55026        -7.14539        -1.09880
C          3.71438        -7.84502        -0.40545
C          5.00233        -7.11212        -0.44630
C          6.29547        -7.86087        -0.69862
C          7.48954        -7.04211        -0.29121
C         -6.05334        -9.23584         0.70876
C         -4.85748        -9.87094         0.74120
C         -3.60191        -9.22141         0.37605
C         -2.40398        -9.86200         0.41605
C         -1.11668        -9.07202         0.47245
C          0.16416        -9.83895         0.27628
C          1.28943        -9.27781        -0.24568
C          2.55837        -9.99283        -0.21076
C          3.74576        -9.32615        -0.31273
C          5.04750        -9.94391        -0.08937
C          6.21885        -9.27250        -0.17378
O          6.58508         2.19516        -0.55529
O         -2.70436        -7.77772        -2.04431
H         -1.85253        -7.75890        -2.53384
O         -4.60127        -3.16302        -2.25758
O          6.08216        -2.74468        -1.87264
H          5.59041        -3.36978        -2.45970
O          6.94409         8.47092         0.96198
H          6.19820         8.69476         1.56941
O          2.11133        -3.26124         1.72892
H          2.85390        -2.87018         2.25286
O          4.29284        -7.26844         0.82485
O          6.24004        -0.47447         2.49513
O          8.87467        -0.46194         2.24967
O         -1.27168        -0.37069        -2.19862
H         -1.31399        -1.24417        -2.66407
O         -5.77388         5.59522        -1.53335
O         -5.89783        -5.52486        -1.92168
O          2.93149        -7.11351        -2.49294
H          2.16179        -7.54631        -2.97032
O          7.59859         1.79664         2.92468
H          7.57811         0.95162         3.43358
O         -6.29213         0.24906        -1.77378
O          5.65189        -5.30774        -2.07885
O         -5.65826        -8.06190        -1.35969
O          0.77704        -8.26545        -2.32164
O          2.27967        -1.00068        -1.22730
O          6.43822        -7.96984        -2.15420
H          6.22054        -7.08386        -2.53687
O          3.65141         5.01397         2.43974
H          3.86372         5.92254         2.74535
O         -9.75973         1.18144        -1.16817
O          4.05591        -1.52386         1.99501
O         -1.08043        -8.59170         1.89504
H         -0.94110        -9.37994         2.46352
O          0.39795         3.07767         1.96439
O          4.16827         3.45190        -0.84532
H          5.06929         2.99127        -0.90352
O         -2.35137        -1.78603         1.04767
H         -2.43656        -0.95993         1.56941
O          8.63860        -3.28384        -2.02797
H          7.74745        -2.93191        -2.28199
O          6.56987         4.04134         2.58566
H          6.27523         3.34347         3.21565
O          4.57579         2.21509         2.55968
O         -1.73607        -2.95408        -2.29043
O         -5.60697         7.55636         1.42239
O          1.30644         8.41808         1.81794
H          1.22429         7.63587         2.40412
O         -2.77571         6.43777         1.53751
O          4.47146         7.90815         1.42817
O         10.30887         1.97363         2.47083
H          9.44403         2.17556         2.90932
O         -3.27217         5.13435        -1.82092
H         -4.08642         4.98433        -2.35664
O         -5.16610         1.25385         1.59697
H         -4.47260         1.79339         2.03355
O         -3.50444        -7.08534         1.46250
H         -2.67961        -7.44850         1.87369
O          7.41645        -3.58512         1.44117
H          7.92961        -3.04882         2.08427
H         12.11289        -1.13828         0.04169
H         12.15893         1.19686         0.72406
H         10.67831         3.24641         0.02873
H          9.39701         5.07221        -0.74139
H          8.27516         7.15323        -1.09976
H          6.97506         9.24623        -1.75031
H          4.83486        10.37346        -2.02608
H          2.46261        10.60421        -1.55482
H          0.05196        10.82049        -1.17553
H         -2.39760        11.01089        -0.76300
H         -4.95980        11.07708        -0.68108
H         -7.11305         9.96481        -0.37354
H         -8.50012         7.73023         0.18673
H         -9.64706         5.56302         0.61520
H        -10.76536         3.41833         1.02435
H        -12.00164         1.15415         1.24616
H        -11.89657        -1.28699         1.24445
H        -10.73747        -3.38598         0.86162
H         -9.52436        -5.51483         0.69018
H         -8.28541        -7.60023         0.71108
H         -6.95490        -9.73461         1.09633
H         -4.79446       -10.88826         1.15814
H         -2.36431       -10.94312         0.62755
H          0.22641       -10.83582         0.74626
H          2.54688       -11.07652        -0.01161
H          5.05422       -11.00444         0.20796
H          7.16517        -9.79487         0.03330
H          8.43843        -7.55711        -0.07040
H          9.64208        -5.45984        -0.10256
H         10.90865        -3.14165        -0.56043
