         324
 CSIRO Nanostructure Databank - Neutral Graphene Oxide Data Set
C          1.23726         3.46026         0.65965
C          0.07987         4.16739         0.80585
C          1.20573         6.35825         0.69182
C          0.05563         5.59707         0.80130
C          1.23381         7.78589         0.96560
C          0.07679         8.53167         1.14145
C          1.22880        10.69544         0.95810
C          0.07317         9.94546         1.12717
C          1.21441        12.11454         0.65804
C          0.00079        12.82982         0.71497
C          1.13262        14.86531         0.05664
C         -0.03255        14.18845         0.45624
C          1.06217        16.35096        -0.06666
C         -0.18306        17.06683        -0.41041
C          0.98530        19.24492        -0.43040
C         -0.20728        18.42431        -0.48126
C          0.93583        20.64876        -0.32904
C         -0.26973        21.38725        -0.01275
C          0.97291        23.52188         0.02562
C         -0.27106        22.73818         0.14257
C          1.05549        25.03057         0.30572
C         -0.14320        25.79916         0.67408
C          1.20763        27.81270         0.97120
C         -0.05393        27.13226         0.94863
C          1.26722        29.24003         0.96028
C          3.76707         3.48864         0.43913
C          2.47589         4.13852         0.27898
C          3.75947         6.38713         0.45804
C          2.46287         5.69808         0.29905
C          3.78035         7.78150         0.68801
C          2.52925         8.47308         1.06842
C          3.75449        10.75647         0.70059
C          2.52713        10.02979         1.07861
C          3.69824        12.08804         0.33744
C          2.41834        12.79566         0.30369
C          3.52192        14.86662        -0.72972
C          2.36020        14.17399        -0.02898
C          3.66066        16.36951        -0.31845
C          2.33495        17.12060        -0.22021
C          3.41105        19.24390        -0.89983
C          2.26817        18.56110        -0.57884
C          3.36336        20.74355        -1.01819
C          2.17091        21.39619        -0.36987
C          3.49139        23.37758         0.38369
C          2.22059        22.72961        -0.01986
C          3.58982        24.85902         0.68939
C          2.35869        25.67525         0.59171
C          3.70809        27.68079         1.15569
C          2.40633        27.03157         0.89331
C          3.73197        29.25128         1.10031
C          2.45041        29.92634         0.88805
C          6.20110         3.50689         0.30975
C          4.96638         4.20466         0.34790
C          6.21588         6.36156         0.40099
C          4.96869         5.65986         0.36518
C          6.21455         7.80695         0.44020
C          4.99497         8.50294         0.63416
C          6.32254        10.70682         0.43649
C          5.02006         9.97829         0.80063
C          6.28715        12.18258         0.15891
C          4.94411        12.88098         0.12323
C          6.05448        14.88735        -0.81091
C          4.88894        14.21557        -0.52166
C          5.98063        16.29797        -1.31996
C          4.69546        17.05082        -1.20786
C          5.92805        19.35958        -1.49339
C          4.66152        18.55843        -1.32042
C          5.83097        20.79970        -1.09189
C          4.67624        21.35715        -0.61421
C          6.08961        23.35508         0.21336
C          4.75581        22.62476         0.12204
C          6.09309        24.81727         0.44890
C          4.92993        25.53120         0.66879
C          6.16038        27.68719         0.80245
C          4.96851        26.97236         0.85835
C          6.18851        29.14062         0.72394
C          4.99453        29.86962         0.74050
C          8.66382         3.48692         0.14696
C          7.43173         4.19191         0.24479
C          8.71334         6.31276         0.29513
C          7.42501         5.62350         0.32757
C          8.69530         7.80361         0.05223
C          7.41043         8.53339         0.09256
C          8.44976        10.57213        -0.97923
C          7.43264         9.90591        -0.07735
C          8.58104        12.07473        -0.79152
C          7.45765        12.80854        -0.51585
C          8.51451        14.89996        -1.24354
C          7.38286        14.24367        -0.80508
C          8.53238        16.37097        -1.39670
C          7.23633        17.11020        -1.20850
C          8.59978        19.25816        -1.31728
C          7.24507        18.61885        -1.25400
C          8.82276        20.56256        -1.71112
C          6.96856        21.66216        -1.26797
C          8.57658        23.40381        -0.40432
C          7.20952        22.82361        -0.59405
C          8.64271        24.84345        -0.05850
C          7.42731        25.45660         0.52824
C          8.68642        27.68049         0.41216
C          7.44755        26.97532         0.74827
C          8.67278        29.11565         0.46118
C          7.43733        29.80324         0.57376
C         11.13628         3.43604        -0.05613
C          9.91558         4.14486         0.01941
C         11.15773         6.27746        -0.18027
C          9.94878         5.57575        -0.00778
C         11.17744         7.70367        -0.40365
C          9.87987         8.39342        -0.63130
C         11.07878        10.58387        -1.06217
C          9.80075         9.83220        -1.07267
C         11.08571        11.96294        -1.08654
C          9.78458        12.65939        -1.52408
C         10.95557        14.87028        -0.68195
C          9.86048        14.22851        -1.54698
C         11.05544        16.35422        -0.71145
C          9.81753        17.09671        -1.08707
C         11.09115        19.15946        -0.85849
C          9.72764        18.54184        -0.59807
C         11.19070        20.62260        -1.21007
C          9.95166        21.35005        -1.36999
C         11.13388        23.47968        -0.74742
C          9.86637        22.70056        -0.76724
C         11.11149        24.85497        -0.42784
C          9.85166        25.52923        -0.08658
C         11.11769        27.66703         0.16942
C          9.87625        26.96272         0.17985
C         11.12517        29.08423         0.41728
C          9.90484        29.79878         0.46718
C         13.60167         3.42070        -0.09186
C         12.37352         4.11969        -0.12564
C         13.61768         6.26238        -0.31532
C         12.38990         5.55729        -0.22261
C         13.62974         7.69139        -0.49668
C         12.36559         8.37371        -0.64436
C         13.64019        10.57332        -0.95860
C         12.33232         9.79784        -1.05879
C         13.52121        12.01844        -0.70508
C         12.31615        12.68089        -0.79869
C         13.46406        14.90467        -0.18459
C         12.23001        14.11345        -0.39115
C         13.46862        16.29003        -0.18967
C         12.22365        17.01039        -0.39414
C         13.58257        19.17899        -0.52640
C         12.26682        18.51644        -0.14757
C         13.59885        20.59624        -0.81418
C         12.43556        21.34640        -0.97314
C         13.58925        23.51766        -0.83344
C         12.38138        22.79298        -0.91244
C         13.59853        24.90951        -0.55745
C         12.34715        25.57453        -0.34673
C         13.58569        27.64814         0.15908
C         12.35123        26.97145        -0.01883
C         13.57028        29.01417         0.61592
C         12.35548        29.72884         0.66313
C         16.06171         3.42015         0.06502
C         14.83036         4.11148        -0.09387
C         16.08249         6.24345        -0.17915
C         14.84337         5.54397        -0.20541
C         16.09519         7.68569        -0.28183
C         14.86071         8.39394        -0.47913
C         16.04000        10.54557        -0.35704
C         14.87454         9.84685        -0.54527
C         16.04881        12.02848        -0.38781
C         14.72865        12.69953        -0.18544
C         15.98711        14.93055         0.18039
C         14.71599        14.17830         0.07228
C         15.94547        16.35745         0.11400
C         14.72574        17.03548        -0.11003
C         16.09974        19.07880        -0.70816
C         14.75537        18.45531        -0.36807
C         16.13144        20.59329        -0.65755
C         14.87814        21.29019        -1.01208
C         16.11787        23.53191        -0.80579
C         14.85972        22.81482        -1.04024
C         16.10388        24.91071        -0.65522
C         14.84972        25.61515        -0.48210
C         16.05443        27.68309         0.18180
C         14.84126        26.99080        -0.08396
C         16.00283        28.92160         0.90547
C         14.77310        29.59379         1.06563
C         18.48912         3.40301         0.50172
C         17.27707         4.10535         0.10988
C         18.56688         6.24907        -0.05033
C         17.29278         5.52418        -0.05719
C         18.55230         7.71480         0.10222
C         17.32299         8.38057        -0.14707
C         18.57261        10.59817         0.14514
C         17.33067         9.84351        -0.26840
C         18.37863        11.99571         0.70993
C         17.27096        12.78126         0.03329
C         18.40243        14.89806         0.69508
C         17.18833        14.23087         0.36714
C         18.35219        16.36627         0.84556
C         17.18285        17.09926         0.30887
C         18.49795        19.20035         0.13413
C         17.26363        18.44578         0.01562
C         18.54061        20.58677        -0.21514
C         17.30733        21.28432        -0.56314
C         18.62834        23.47403        -0.62959
C         17.38082        22.73422        -1.03518
C         18.65152        24.88128        -0.78228
C         17.38145        25.67310        -0.77503
C         18.57324        27.91697         0.13307
C         17.35457        27.17404        -0.29212
C         18.46041        28.99561         1.06956
C         17.18723        29.48900         1.42785
C         19.65628         4.04480         0.74357
C         20.87356         6.26732         1.04227
C         19.82843         5.46838         0.40728
C         20.84685         7.62969         1.01139
C         19.72940         8.39841         0.51773
C         20.82002        10.58984         1.09915
C         19.73997         9.83490         0.64409
C         20.81418        12.00891         1.10086
C         19.67560        12.76206         0.83659
C         20.85681        14.95818         0.93088
C         19.62707        14.20124         0.85613
C         20.89869        16.31437         0.89328
C         19.67422        17.12617         0.95145
C         20.90257        19.26117         0.53184
C         19.69348        18.54719         0.53237
C         20.93921        20.60357         0.18432
C         19.76665        21.29365        -0.18381
C         21.05950        23.40290        -0.56450
C         19.82257        22.73504        -0.46706
C         21.10183        24.74844        -0.90586
C         19.91018        25.47446        -1.01109
C         20.97899        28.43771        -0.02994
C         19.84737        27.71425        -0.42783
C         20.86539        29.41134         0.97306
C         19.62203        29.69022         1.51365
O         17.31452        26.77106        -1.70663
O          5.13932        19.00660        -2.66252
O          9.54967        12.23987        -2.86644
O         11.17507        14.31451         0.63974
O          5.61693        22.52168         1.31036
O          1.73984        16.95095         1.11954
O         16.97074        12.58278        -1.38792
O         13.15375        10.09085        -2.24396
O         18.31466        10.37488        -1.25559
O         18.84343        16.86682         2.13492
O          8.97403         7.29463         1.38837
O          7.65711        26.03304         1.85246
O          9.70693         8.73771        -2.04134
O          7.79109        21.27330        -2.32482
O          7.15202        17.88382         0.04534
O          3.42313        23.85919         1.76832
O          5.97095        10.40275         1.81963
O          9.36736        16.93176        -2.46013
O          5.81615        12.92932         1.31587
O         20.02760        26.79404        -1.46438
O          5.09889        16.44675        -2.48107
O         11.34313        19.51374        -2.21828
O         19.57285         5.76625        -0.99685
O          3.76334        28.47461         2.35399
O          0.97001        24.50323        -1.09618
O          2.68462         9.24329         2.30126
O          9.29795        22.59850         0.62885
O         14.91072        22.00937        -2.30560
O          2.37143         4.95048        -0.94656
O         14.57151        13.19081         1.19073
O          9.52887        18.55835         0.83283
H          8.59544        18.27131         1.00579
O         17.90006        11.76392         2.07464
H         17.83062        12.63132         2.52776
O          3.21923        21.06310        -2.44531
H          3.83439        20.46063        -2.93247
O          4.25956        16.41083         0.99359
H          3.52443        16.41275         1.65096
O         16.31690        18.75190        -2.12686
H         15.61744        19.20186        -2.64816
O         17.52936        22.62974        -2.49382
H         16.65883        22.30848        -2.84059
O         12.15141        18.72001         1.28061
H         11.22230        18.50902         1.54361
O          7.81065        10.45077        -2.27889
H          8.38983        11.01589        -2.88265
O         10.23398        14.58470        -2.88682
H          9.97276        13.79173        -3.43669
O          3.14280        14.77084        -2.12148
H          3.86746        15.17338        -2.66339
H          1.26223         2.37586         0.83985
H         -0.85470         3.63880         1.04140
H         -0.90113         6.08276         1.03672
H         -0.89929         8.02801         1.15126
H         -0.90836        10.43748         1.12314
H         -0.92825        12.32433         1.00625
H         -0.97896        14.73666         0.55547
H         -1.10917        16.49468        -0.56150
H         -1.17026        18.92517        -0.65829
H         -1.21790        20.83932         0.08535
H         -1.21924        23.26476         0.32210
H         -1.12621        25.31232         0.61672
H         -0.96703        27.71591         1.13684
H          0.31770        29.79072         0.88602
H          3.79835         2.40312         0.61581
H          2.45475        31.00859         0.69317
H          6.19265         2.40764         0.29367
H          5.00433        30.93451         0.46513
H          8.64038         2.38725         0.15381
H          7.44787        30.90308         0.57946
H         11.12824         2.33707        -0.01491
H          9.92175        30.89151         0.58806
H         13.59786         2.32320        -0.01886
H         12.36445        30.79089         0.94709
H         16.04770         2.32876         0.20303
H         14.75969        30.58847         1.53269
H         18.39975         2.32833         0.72040
H         17.11820        30.39556         2.04592
H         20.50977         3.50528         1.18097
H         21.67326         5.74528         1.58867
H         21.68095         8.17123         1.47843
H         21.75089        10.09409         1.40725
H         21.76350        12.51010         1.33694
H         21.80728        14.40774         0.91410
H         21.87310        16.81471         0.80462
H         21.83484        18.77021         0.84054
H         21.90358        21.12425         0.23216
H         22.00565        22.85704        -0.46365
H         22.05903        25.25104        -1.09393
H         21.94417        28.23391        -0.51047
H         21.75299        29.96811         1.30255
H         19.50447        30.48951         2.25830
