         404
 CSIRO Nanostructure Databank - Neutral Graphene Oxide Data Set
C          1.62851         2.08069        -2.80025
C          1.58156         3.47821        -2.73437
C          2.76884         1.38194        -2.41897
C          2.69706         4.21383        -2.28429
C          1.49329         6.40956        -2.10361
C          1.50186         7.83460        -2.02622
C          2.65689         5.67644        -2.15856
C          2.66648         8.57727        -1.91159
C          1.47415        10.78842        -2.03354
C          1.45518        12.15541        -1.86508
C          2.66963        10.04184        -1.84055
C          2.62689        12.87975        -1.51770
C          1.38703        15.05442        -1.38970
C          1.36365        16.41464        -1.17536
C          2.59756        14.30338        -1.30000
C          2.55687        17.12420        -0.87237
C          2.55652        18.53423        -0.66708
C          3.91311         2.07858        -1.95344
C          3.85873         3.49865        -1.90122
C          5.11710         1.37482        -1.61341
C          5.01011         4.22255        -1.33880
C          3.93719         6.41655        -2.11343
C          3.93571         7.87593        -1.85750
C          5.18148         5.64953        -1.70942
C          5.10830         8.52777        -1.54374
C          3.85421        10.73930        -1.55711
C          3.86005        12.16435        -1.39446
C          5.07211         9.96729        -1.21340
C          5.06502        12.87648        -1.09404
C          3.80223        14.98692        -0.97858
C          3.78266        16.40187        -0.78075
C          5.04345        14.26624        -0.88130
C          4.99506        17.10548        -0.52046
C          3.72362        19.20908        -0.38544
C          4.97146        18.52328        -0.30672
C          6.28900         2.01840        -1.19844
C          6.25791         3.47390        -0.94832
C          7.52624         1.35837        -1.04806
C          7.52593         4.21832        -0.80986
C          6.38461         6.35979        -1.25238
C          6.40111         7.80665        -1.47263
C          7.52553         5.66062        -0.85108
C          7.68172         8.55142        -1.01873
C          6.33431        10.70448        -0.89558
C          6.39829        12.17595        -1.23134
C          7.62338         9.99557        -0.76597
C          7.55356        12.86230        -0.54003
C          6.25980        14.99479        -0.58670
C          6.22039        16.38397        -0.44453
C          7.51072        14.26382        -0.37100
C          7.51739        17.14956        -0.36080
C          6.16024        19.22364         0.02636
C          7.40231        18.58059         0.11306
C          8.71469         2.05831        -0.71341
C          8.69945         3.50920        -0.57725
C          9.93683         1.38176        -0.59809
C          9.89456         4.20914        -0.16766
C          8.72484         6.36914        -0.42806
C          8.74779         7.76907        -0.40149
C          9.85889         5.60471         0.01035
C          9.80557         8.51290         0.31492
C          8.74548        10.68645        -0.29607
C          8.71420        12.13919        -0.19800
C          9.90182         9.97660         0.13884
C          9.89052        12.81917         0.23568
C          8.65893        14.92895         0.11475
C          8.57369        16.37439         0.38933
C          9.86305        14.23763         0.38444
C          9.81423        17.11262         0.78686
C          8.58384        19.25990         0.45239
C          9.82429        18.58638         0.62672
C         11.15066         2.06751        -0.31069
C         11.11791         3.47112        -0.00353
C         12.38293         1.38269        -0.32758
C         12.33353         4.13539         0.31570
C         10.98408         6.26630         0.70853
C         10.96514         7.76136         0.89258
C         12.28071         5.51157         0.87629
C         12.25610         8.50157         1.29390
C         11.09331        10.65785         0.50410
C         11.10199        12.09931         0.48373
C         12.28361         9.94904         0.83480
C         12.30656        12.80504         0.73859
C         11.07482        14.94834         0.72269
C         11.08599        16.36715         0.83538
C         12.30381        14.24073         0.82570
C         12.29333        17.07641         0.93210
C         11.04000        19.24327         0.72767
C         12.27078        18.52634         0.87438
C         13.60542         2.06483        -0.14533
C         13.55263         3.46671         0.16078
C         14.84760         1.35760        -0.20233
C         14.80386         4.23497         0.22931
C         13.56572         6.27186         1.25442
C         13.54200         7.76582         0.97390
C         14.81655         5.62974         0.71912
C         14.73998         8.47179         0.94711
C         13.51581        10.64370         0.89679
C         13.52924        12.07850         0.85862
C         14.75552         9.92303         0.96378
C         14.75944        12.78020         0.97405
C         13.53369        14.95115         1.00001
C         13.54813        16.38938         1.03709
C         14.75529        14.21355         1.03733
C         14.77834        17.11484         1.16711
C         13.47499        19.20978         0.85219
C         14.75182        18.57688         0.97158
C         16.09006         1.98862        -0.01239
C         16.08625         3.46538         0.11839
C         17.32594         1.32389         0.00776
C         17.30283         4.10968         0.67570
C         15.99571         6.33520         0.78105
C         16.01995         7.77306         0.92620
C         17.27676         5.60104         0.88119
C         17.24029         8.46199         0.98062
C         15.98676        10.62285         0.99506
C         15.98965        12.05598         1.02633
C         17.24514         9.91350         1.03090
C         17.22645        12.76574         1.06992
C         15.98477        14.91632         1.14426
C         15.97620        16.34201         1.29814
C         17.22407        14.19458         1.11395
C         17.26020        16.93856         1.47218
C         15.82955        19.43762         0.69644
C         17.20327        19.10635         0.91795
C         18.58000         1.99857         0.24227
C         18.57711         3.42680         0.48562
C         19.78201         1.30703         0.33058
C         19.76037         4.16745         0.64951
C         18.54212         6.33590         0.80693
C         18.51629         7.75069         0.90845
C         19.75401         5.61271         0.74854
C         19.74999         8.44630         0.96011
C         18.45543        10.62440         1.08665
C         18.46407        12.05171         1.07903
C         19.74463         9.89103         1.38913
C         19.70875        12.77107         1.06153
C         18.46813        14.89130         1.05532
C         18.44960        16.32311         1.12568
C         19.70038        14.18227         1.03886
C         19.61557        17.13845         0.66582
C         18.33765        19.44813         0.24140
C         19.58136        18.61503         0.29617
C         21.01359         1.96332         0.89115
C         20.99177         3.46696         0.74112
C         22.32353         1.38451         0.41093
C         22.17889         4.18457         0.85263
C         20.99741         6.32293         0.76036
C         20.98267         7.76125         0.84957
C         22.20763         5.59375         0.80362
C         22.22939         8.48732         0.84349
C         20.99773        10.64027         1.00861
C         20.95354        12.01765         0.95797
C         22.24744         9.89205         0.93308
C         22.21386        12.78210         0.83253
C         20.98097        14.96121         0.98802
C         20.96458        16.47613         0.82488
C         22.19368        14.16527         1.33492
C         22.15821        17.37411         0.92816
C         20.86502        19.34015         0.25688
C         22.11283        18.74596         0.46482
C         23.51278         2.03104         0.74217
C         23.38885         3.42734         1.25927
C         24.79591         1.47591         0.54009
C         24.59700         4.19444         1.68877
C         23.55506         6.24134         0.59944
C         23.51012         7.76738         0.64877
C         24.67724         5.64577         1.43937
C         24.79855         8.48866         1.00151
C         23.50724        10.58187         1.05930
C         23.52760        12.04515         0.97581
C         24.71732         9.92520         1.28300
C         24.73158        12.76500         1.43139
C         23.34954        14.68517         1.85063
C         23.34776        16.83977         1.45220
C         24.66104        14.12282         1.71920
C         24.61949        16.97458         0.88886
C         23.31119        19.57195         0.52562
C         24.58739        19.03324         0.37091
C         25.97007         2.00255         1.23188
C         25.85227         3.40815         1.88432
C         27.32303         1.48612         1.00988
C         27.09328         4.17926         2.22078
C         25.90497         6.32685         1.59510
C         26.00287         7.74512         1.42722
C         27.09413         5.65009         2.04740
C         27.20755         8.45664         1.67119
C         25.95483        10.62969         1.49517
C         25.95743        12.04004         1.55857
C         27.18818         9.89839         1.59402
C         27.18471        12.79999         1.58341
C         25.90580        14.97292         1.95288
C         25.86050        16.37160         1.26529
C         27.14279        14.19335         1.56339
C         27.00319        17.14567         1.03463
C         25.87597        19.45737         0.78297
C         27.01302        18.59882         0.84453
C         28.46126         2.09459         1.51700
C         28.41653         3.43358         2.14383
C         29.75447         1.52055         1.37297
C         29.65486         4.23554         2.25243
C         28.29710         6.34180         2.24645
C         28.44114         7.76299         1.97399
C         29.43727         5.53790         2.64627
C         29.69712         8.47984         1.79877
C         28.41436        10.61066         1.55593
C         28.42956        12.05750         1.47436
C         29.62906         9.86951         1.49329
C         29.64107        12.76298         1.36876
C         28.35098        14.93768         1.15995
C         28.31355        16.43626         0.98100
C         29.64066        14.20772         1.28068
C         29.60355        17.21108         1.05520
C         28.27301        19.27823         0.85230
C         29.54727        18.69794         0.79940
C         30.95136         2.14844         1.75793
C         30.97310         3.53867         2.31279
C         32.15335         1.47075         1.48427
C         32.33780         4.29024         2.31607
C         31.31245         6.60112         2.41212
C         31.04583         7.87842         1.80046
C         32.37168         5.76685         2.10403
C         32.17211         8.49791         1.21999
C         30.80492        10.60714         0.98448
C         30.87430        12.06819         1.14034
C         32.10633         9.88767         0.75570
C         32.09190        12.73644         0.98897
C         30.81512        14.88481         1.12188
C         30.83220        16.35545         0.98029
C         32.11613        14.19198         1.19010
C         32.04304        16.87790         0.33193
C         30.68785        19.55340         0.78238
C         31.96406        19.11210         0.32407
C         33.41941         2.09491         1.45810
C         33.56972         3.51048         1.87539
C         34.51751         1.40559         0.93772
C         34.82231         4.21772         1.36985
C         33.57624         6.46684         1.61647
C         33.43990         7.85187         1.14568
C         34.84903         5.71512         1.28868
C         34.58605         8.51713         0.65196
C         33.36281        10.65484         0.67075
C         33.33167        12.06659         0.70011
C         34.56832         9.94618         0.48108
C         34.54344        12.79608         0.42641
C         33.40695        14.95708         0.95099
C         33.27707        16.36734         0.50537
C         34.57663        14.22838         0.42188
C         34.53547        17.18744         0.36117
C         33.28145        19.50337         0.47149
C         34.37252        18.65650        -0.05370
C         35.69160         2.06433         0.45515
C         35.78074         3.48607         0.51692
C         36.69344         1.33866        -0.22702
C         36.79957         4.17203        -0.17581
C         35.82383         6.37992         0.40814
C         35.77141         7.78869         0.27267
C         36.84001         5.62314        -0.22113
C         36.85910         8.47463        -0.35383
C         35.75249        10.65742         0.11306
C         35.71217        12.06645         0.07099
C         36.90893         9.91315        -0.35447
C         36.93619        12.82003        -0.25404
C         35.63956        14.95378        -0.19039
C         35.58265        16.38847        -0.39042
C         36.80809        14.25116        -0.62306
C         36.54478        17.03011        -1.14925
C         35.39857        19.23719        -0.73976
C         36.47419        18.47891        -1.35815
C         37.75200         1.99875        -0.86867
C         37.79833         3.42925        -0.87030
C         38.78001         1.26542        -1.55524
C         38.85270         4.10699        -1.55594
C         37.87891         6.29424        -0.91808
C         37.91617         7.72576        -0.93973
C         38.90692         5.53616        -1.57479
C         38.99800         8.40413        -1.59191
C         38.03028        10.57384        -0.88298
C         38.14930        12.03968        -0.71090
C         39.05834         9.83496        -1.56693
C         39.21492        12.78878        -1.45587
C         37.81675        14.90064        -1.35802
C         37.65553        16.29190        -1.70688
C         38.97576        14.19281        -1.84644
C         38.60941        16.94089        -2.49603
C         37.37029        19.10349        -2.17539
C         38.35562        18.33870        -3.00569
C         39.79215         1.91616        -2.20451
C         39.85543         3.34927        -2.22387
C         40.89698         4.03025        -2.89518
C         39.96512         6.19653        -2.25156
C         40.01881         7.65134        -2.25064
C         40.94907         5.41340        -2.90567
C         41.06473         8.34415        -2.88296
C         40.13335        10.49631        -2.22953
C         40.24646        11.98282        -2.22631
C         41.11408         9.73729        -2.87386
C         40.93434        12.68400        -3.31814
C         39.89662        14.82518        -2.68814
C         39.78357        16.25271        -2.94382
C         40.84776        14.03492        -3.43682
C         40.82776        16.98720        -3.51640
C         39.62593        19.09071        -3.29376
C         40.76430        18.41193        -3.60500
O          5.45391        10.29509         0.20764
O         28.26291        15.54910        -0.20854
O         32.99422        14.62994         2.31563
O         40.55001        12.54503        -0.90277
O          8.79228        16.70097         1.78707
O         19.46626        17.54413        -0.74514
O         23.03510        12.53136        -0.34302
O         21.18411        15.57524        -0.34294
O         25.68282         2.24718         2.68002
O         17.36707        18.21948         2.00299
O         11.30723         5.58030         1.96916
O          9.86326         8.14334         1.78200
O         30.41964        16.99440         2.26308
O         24.65287        17.75558        -0.25824
O          5.26826         3.91828         0.06567
O         24.36421         8.29528        -0.42315
O         23.59163         3.70507         2.68889
O         31.84360        17.96866        -0.50196
O          7.41714         8.23882        -2.44020
O         31.19341        10.13836        -0.37264
O         27.68793         3.60145         3.41805
O         23.23594        15.92430         2.51505
O         34.70837         6.35416         2.58550
O         34.73376         3.70964         2.73558
O          4.89402         5.93296        -3.12161
O         15.56553         4.14621        -1.06677
O         30.40922         6.19995         3.38775
O         38.04077        12.50619         0.67557
O         17.19107         4.66008         2.03331
O         31.75159         3.74942         3.52981
O          6.71881        12.20613        -2.66479
H          6.83674        13.14377        -2.92657
O         20.97514         1.69327         2.34558
H         21.71647         2.18994         2.75929
O          8.02605        17.22181        -1.73830
H          7.38012        17.73756        -2.26588
O         13.69693         6.17605         2.70472
H         13.02270         6.78824         3.08999
O         12.21964         8.55984         2.76422
H         11.26619         8.65154         3.00631
O         25.99627        15.24908         3.38435
H         25.12464        15.60759         3.66392
O         35.04477        17.30277         1.73306
H         34.99458        16.41801         2.15522
O         19.79961         9.83510         2.86996
H         19.01642         9.32712         3.17365
O         37.70581        18.16972        -4.33361
H         38.35534        17.71202        -4.90948
O         23.91017         5.84674        -0.76955
H         24.37066         6.63119        -1.16177
H          0.74771         1.52953        -3.15838
H          0.66590         4.00222        -3.04125
H          2.78976         0.28428        -2.47464
H          0.51886         5.90213        -2.13615
H          0.52743         8.34108        -2.04007
H          0.54142        10.27396        -2.30018
H          0.50276        12.68447        -1.99966
H          0.44390        14.54476        -1.62656
H          0.41530        16.96684        -1.24409
H          1.60429        19.08022        -0.73306
H          5.13449         0.28354        -1.75546
H          3.70656        20.29583        -0.21842
H          7.57955         0.27138        -1.21083
H          6.09138        20.29479         0.27060
H          9.96863         0.29476        -0.76525
H          8.55433        20.35322         0.58041
H         12.39384         0.30341        -0.53921
H         11.08078        20.33936         0.63990
H         14.81823         0.27065        -0.37033
H         13.45562        20.30305         0.72816
H         17.34416         0.23089        -0.11748
H         15.58789        20.42238         0.26673
H         19.78994         0.21412         0.19977
H         18.28556        20.17564        -0.58221
H         22.35131         0.34693         0.04389
H         20.82567        20.42435         0.07302
H         24.89382         0.53671        -0.02453
H         23.19490        20.63463         0.78269
H         27.43068         0.55262         0.43651
H         26.04622        20.52886         0.96884
H         29.82520         0.51659         0.92636
H         28.22803        20.37708         0.77983
H         32.08657         0.43556         1.11481
H         30.53917        20.61076         1.05443
H         34.40865         0.33054         0.72757
H         33.54155        20.47057         0.92927
H         36.63393         0.24097        -0.26436
H         35.36155        20.31588        -0.95950
H         38.73787         0.16662        -1.54720
H         37.29473        20.18947        -2.34009
H         40.57591         1.34725        -2.72557
H         41.67434         3.44855        -3.41120
H         41.77717         5.90080        -3.43691
H         41.86996         7.79842        -3.39101
H         41.95691        10.23906        -3.36818
H         41.53790        12.11182        -4.03670
H         41.42127        14.53231        -4.23193
H         41.76272        16.48821        -3.80420
H         39.58256        20.18621        -3.38061
H         41.66920        18.95774        -3.90969
