         576
 CSIRO Nanostructure Databank - Neutral Graphene Oxide Data Set
C          5.74472        19.03290        -0.32247
C          5.72823        20.40560        -0.20407
C          4.54919        21.19246        -0.48615
C          5.80035        23.32351        -0.46297
C          4.57585        22.56287        -0.56440
C          5.83177        24.69793        -0.47810
C          8.19243        14.71705        -0.11049
C          8.20400        16.11004        -0.16588
C          6.96994        16.86995        -0.20637
C          8.23874        19.03144        -0.28366
C          6.95098        18.24546        -0.20986
C          8.17715        20.32115         0.54904
C          6.90245        21.19941         0.34160
C          8.25932        23.32347         0.01519
C          7.08348        22.51340        -0.50014
C          8.25209        24.69150         0.04651
C          7.05919        25.45662        -0.31334
C          8.29055        27.64020        -0.19128
C          7.11472        26.83335        -0.46749
C          8.36918        28.99769        -0.34135
C         10.61494        10.33447        -0.08198
C         10.62448        11.73941        -0.03384
C          9.38954        12.52461         0.07408
C         10.68367        14.60660        -0.16322
C          9.37944        13.90205        -0.04191
C         10.71750        16.10527        -0.11524
C          9.45155        16.85882        -0.06174
C         10.71404        18.92987         0.43876
C          9.47773        18.22915         0.08507
C         10.71737        20.30477         0.62849
C          9.48296        21.06209         0.28364
C         10.74569        23.24313         0.64108
C          9.50675        22.54752         0.21684
C         10.75167        24.72351         0.63341
C          9.44699        25.45682         0.49136
C         10.79820        27.64764         0.29415
C          9.47625        26.95173         0.39585
C         10.85563        28.98183         0.02742
C          9.54313        29.74993         0.28843
C         10.44367        32.06233        -0.48493
C          9.51027        31.25930         0.11760
C         10.72558        33.43722        -0.18218
C         13.24351         6.12361         0.84307
C         13.15972         7.51661         0.44168
C         11.94964         8.16322         0.32514
C         13.12339        10.34402         0.06332
C         11.87458         9.52921        -0.32375
C         13.09136        11.72912        -0.58728
C         11.85810        12.43807        -0.10680
C         13.19785        14.58433         0.07150
C         11.90263        13.85978         0.34303
C         13.19605        16.02788         0.20166
C         11.97525        16.78316         0.21786
C         13.19812        18.86796         0.57318
C         11.96996        18.17785         0.47939
C         13.28129        20.26656         0.94166
C         11.93822        21.07249         0.94296
C         13.23092        23.24693         0.68826
C         12.02052        22.50411         0.65053
C         13.26715        24.62408         0.42163
C         12.00144        25.38342         0.08851
C         13.35981        27.53056         0.56907
C         12.04353        26.83480         0.51386
C         13.33144        28.98768         0.44750
C         12.23707        29.50912        -0.42908
C         13.32543        31.82479        -0.15945
C         12.33664        30.98768        -0.62997
C         13.24661        33.27755        -0.23988
C         12.01581        33.99578        -0.21474
C         13.32345        36.24779         0.00475
C         12.05835        35.47044         0.04508
C         13.38915        37.72257        -0.17908
C         15.69490         6.12278         0.66968
C         14.43187         5.46085         0.92042
C         15.63448         7.51537         0.32037
C         14.42636         8.20060         0.17582
C         15.60401        10.31644        -0.39904
C         14.42909         9.60264        -0.13713
C         15.56629        11.76023        -0.51982
C         14.38648        12.46413        -0.34641
C         15.67329        14.56829        -0.10151
C         14.38533        13.88710        -0.14429
C         15.67485        15.96541         0.38494
C         14.41442        16.70000         0.30061
C         15.74983        18.89810         0.28840
C         14.43908        18.15872         0.24367
C         15.71199        20.35332         0.54668
C         14.54106        21.02021         0.74615
C         15.79070        23.25553         0.80940
C         14.50596        22.50448         0.93180
C         15.81004        24.68758         0.47104
C         14.53884        25.32162        -0.00743
C         15.75120        27.48662        -0.18899
C         14.60168        26.82721         0.18095
C         15.69562        29.02676        -0.43229
C         14.66212        29.65504         0.56572
C         15.83297        31.92114         0.42668
C         14.54201        31.18378         0.44449
C         15.84234        33.32299        -0.09780
C         14.54064        34.02469        -0.33524
C         15.73880        36.17508         0.55832
C         14.62490        35.56074        -0.36413
C         15.81566        37.67478         0.28939
C         14.57583        38.36243        -0.06717
C         18.18152         6.05524         0.57323
C         16.91105         5.42952         0.75738
C         18.17486         7.53480         0.42135
C         16.89163         8.27463         0.22605
C         18.08564        10.27732        -0.64831
C         16.89571         9.64072        -0.36223
C         18.10771        11.73332        -0.93769
C         16.81347        12.50185        -0.80698
C         18.11261        14.69338        -0.57348
C         16.83828        13.93991        -0.46362
C         18.19453        16.01225         0.03099
C         16.99554        16.70127         0.51204
C         18.22076        18.87586         0.57133
C         17.02779        18.18772         0.50699
C         18.27308        20.32770         0.48018
C         16.99782        21.05162         0.30631
C         18.30429        23.24774         0.49764
C         17.02323        22.53378         0.39480
C         18.29066        24.65522         0.36585
C         16.99948        25.34226         0.28231
C         18.18293        27.15921        -0.76845
C         16.98701        26.69448        -0.25481
C         18.12457        29.32118        -0.96403
C         17.01838        29.78907        -0.33716
C         18.23960        31.97674        -0.26323
C         17.14697        31.12795         0.39190
C         18.29650        33.42092         0.05682
C         17.09282        34.09880         0.13316
C         18.26697        36.20053         0.48440
C         17.07658        35.50715         0.34638
C         18.20412        37.61193         1.01833
C         16.98860        38.33419         0.46151
C         20.67756         6.03337         0.45471
C         19.39802         5.37272         0.55353
C         20.67424         7.51197         0.28683
C         19.40280         8.13103        -0.18411
C         20.69215        10.24250        -1.06245
C         19.37468         9.52201        -0.71882
C         20.69059        11.72044        -0.71394
C         19.39848        12.46036        -0.67999
C         20.72795        14.62139        -0.51368
C         19.43633        13.95531        -0.80740
C         20.73674        16.01084        -0.12574
C         19.47424        16.61100         0.33267
C         20.74678        18.83094         0.46392
C         19.48958        18.12511         0.68270
C         20.71503        20.27518         0.75630
C         19.45362        21.03756         0.59465
C         20.72164        23.22288         0.52510
C         19.50529        22.50156         0.53255
C         20.74304        24.63771         0.29370
C         19.50623        25.34665         0.16236
C         20.64485        27.52892        -0.21010
C         19.50282        26.73374        -0.30389
C         20.70682        28.99675        -0.54894
C         19.49803        29.84711        -0.87248
C         20.77524        32.03873        -0.49994
C         19.50762        31.32676        -0.70163
C         20.72831        33.46207        -0.35339
C         19.53796        34.13408        -0.04556
C         20.72971        36.28686         0.26039
C         19.52810        35.56029         0.22028
C         20.72320        37.70915         0.61010
C         19.50151        38.35018         0.88000
C         23.17511         6.08669         0.47135
C         21.89665         5.38797         0.54658
C         23.19183         7.47245         0.18959
C         21.94964         8.23533         0.05457
C         23.15755        10.30822        -0.56728
C         21.96890         9.60569        -0.51780
C         23.21751        11.74397        -0.70080
C         21.95502        12.48764        -1.09149
C         23.17792        14.59639        -0.50729
C         21.93501        13.91703        -0.61041
C         23.14630        16.09006        -0.67883
C         21.91957        16.74172        -0.08822
C         23.19166        18.90227         0.08524
C         21.94052        18.15643         0.20848
C         23.22111        20.28239         0.29364
C         22.01680        21.00528         0.75405
C         23.26729        23.23932         0.55063
C         21.99017        22.50589         0.75779
C         23.22862        24.73648         0.39314
C         21.95046        25.39133         0.22791
C         23.20092        27.61004        -0.01036
C         21.90368        26.89869         0.41773
C         23.17519        29.09061         0.19290
C         21.87637        29.82454        -0.04209
C         23.18136        32.02357        -0.02689
C         21.93700        31.30498        -0.26030
C         23.21159        33.40245        -0.20733
C         21.99525        34.22157        -0.59933
C         23.17076        36.34376         0.04120
C         21.99216        35.64030        -0.02427
C         23.25851        37.83605         0.26520
C         21.93561        38.42322         0.65288
C         25.68086         6.04380         0.52575
C         24.38879         5.39988         0.72248
C         25.68114         7.56401         0.38896
C         24.38186         8.32799         0.46882
C         25.69057        10.35586        -0.28342
C         24.45830         9.52987        -0.55624
C         25.66504        11.73734        -0.27991
C         24.40228        12.44662        -0.49309
C         25.64465        14.62244        -0.39539
C         24.40351        13.90114        -0.48464
C         25.65278        16.06065        -0.39596
C         24.43235        16.78120        -0.34496
C         25.65132        18.88457        -0.36037
C         24.42611        18.17785        -0.19963
C         25.57710        20.34256        -0.49760
C         24.39668        21.06122         0.00045
C         25.64667        23.18454        -0.12662
C         24.43414        22.45033         0.10291
C         25.63421        24.59662        -0.39618
C         24.51792        25.48650        -0.06453
C         25.60975        27.76239        -0.46172
C         24.37976        26.97043        -0.34635
C         25.67503        29.10523         0.17396
C         24.42476        29.89214         0.21101
C         25.69688        32.02883         0.41669
C         24.41867        31.27211         0.22133
C         25.72930        33.54852         0.34032
C         24.47964        34.13985        -0.27017
C         25.70433        36.27083         0.28718
C         24.46183        35.65740        -0.16258
C         25.75162        37.56515         0.87337
C         24.42262        38.23246         1.23688
C         28.17705         6.12296         0.73714
C         26.97584         5.41973         0.83535
C         28.19689         7.55654         0.57786
C         26.92309         8.35306         0.74179
C         28.18257        10.41791         0.15601
C         26.98586         9.59381        -0.21022
C         28.13710        11.82498         0.08731
C         26.89607        12.49911        -0.15020
C         28.11784        14.64741        -0.20236
C         26.87748        13.91668        -0.24543
C         28.11179        16.04456        -0.35636
C         26.89437        16.77586        -0.42568
C         28.12319        18.96582        -0.62769
C         26.88285        18.21282        -0.52119
C         28.15741        20.34549        -0.47421
C         26.91190        21.11336        -0.53151
C         28.10730        23.28385         0.18315
C         26.87317        22.51596        -0.18467
C         28.09523        24.63956        -0.51682
C         26.86082        25.07544        -0.95336
C         28.12942        27.73933        -0.66450
C         26.80339        27.24983        -0.93253
C         28.15885        29.20634        -0.57584
C         26.98446        29.83770         0.08538
C         28.24917        32.05384        -0.10523
C         27.00936        31.31989         0.25555
C         28.22932        33.47826        -0.22410
C         26.98111        34.16015        -0.26550
C         28.22729        36.39818        -0.16110
C         26.93041        35.62129        -0.20425
C         28.28200        37.37905         1.00481
C         26.97708        38.14244         1.16257
C         30.64482         6.12595         0.64509
C         29.45403         5.45050         0.81449
C         30.64921         7.55961         0.43091
C         29.38965         8.25552         0.43879
C         30.62089        10.39490         0.45081
C         29.40346         9.70788         0.35584
C         30.59508        11.86905         0.73844
C         29.36132        12.57374         0.21744
C         30.62817        14.68569         0.04163
C         29.36744        13.94619         0.00564
C         30.65131        16.05028        -0.23126
C         29.39385        16.73689        -0.60489
C         30.71178        18.98918        -0.89607
C         29.38946        18.21860        -0.85156
C         30.59181        20.39184        -0.34599
C         29.40001        21.08517        -0.28011
C         30.55367        23.28209        -0.11923
C         29.39353        22.53828        -0.09806
C         30.58951        24.77408        -0.09423
C         29.28788        25.51467        -0.35991
C         30.58245        27.68605        -0.51396
C         29.31569        26.99636        -0.62773
C         30.69142        29.09782        -0.48623
C         29.46360        29.91296        -0.54396
C         30.68977        32.03762        -0.21792
C         29.46103        31.35426        -0.21162
C         30.68325        33.44864        -0.26161
C         29.48423        34.17189        -0.30008
C         30.77910        36.50970        -0.43774
C         29.48390        35.63897        -0.67229
C         30.72773        37.65226         0.56182
C         29.56146        38.17980         1.02825
C         33.09586         6.10940         0.53758
C         31.93811         5.46388         0.78198
C         33.11202         7.51108        -0.01635
C         31.84570         8.26648         0.29751
C         33.09399        10.41300         0.39871
C         31.86129         9.70086         0.37751
C         33.12421        11.85150         0.45811
C         31.89321        12.57182         0.43816
C         33.09190        14.69642         0.34199
C         31.86918        13.97544         0.27877
C         33.07896        16.12261         0.22227
C         31.87033        16.80935        -0.12017
C         33.11004        18.91111        -0.15643
C         31.89439        18.21763        -0.30266
C         33.12193        20.38604        -0.28423
C         31.82636        21.08059         0.00537
C         33.13912        23.33558        -0.18197
C         31.82981        22.59810         0.08733
C         33.10079        24.83179         0.06503
C         31.87991        25.47375        -0.25203
C         33.17568        27.65263        -0.61878
C         31.84576        26.90998        -0.56458
C         33.16031        29.10708        -0.33216
C         31.92460        29.78235        -0.29560
C         33.22511        31.94047        -0.13610
C         31.92743        31.23774         0.13891
C         33.22235        33.40346        -0.50435
C         31.98433        34.13901         0.04519
C         33.19833        36.24345         0.62414
C         32.10689        35.64459        -0.31736
C         33.19601        37.74929         0.46486
C         32.01050        38.38263         0.59623
C         34.35689         8.29609         0.26949
C         35.56301        10.43018         0.26349
C         34.34217         9.68446         0.32919
C         35.62590        11.82356         0.33437
C         34.37442        12.55573         0.50511
C         35.44730        14.76216         0.96768
C         34.32194        13.98932         0.59591
C         35.50277        16.17385         0.77426
C         34.29031        16.85362         0.35989
C         35.61789        18.94085         0.09874
C         34.30773        18.24225         0.17242
C         35.68300        20.42064        -0.09548
C         34.38834        21.17230        -0.15308
C         35.60485        23.29247         0.61228
C         34.27694        22.55236         0.51777
C         35.56255        24.80785         0.59704
C         34.31217        25.51730         0.23126
C         35.64778        27.70743         0.02124
C         34.48812        26.86892        -0.43923
C         35.63865        29.07930        -0.14013
C         34.39349        29.80062        -0.20049
C         35.68908        31.96654        -0.21417
C         34.41110        31.24253        -0.17729
C         35.70144        33.35128        -0.10446
C         34.48478        34.13754        -0.04762
C         34.47221        35.45024         0.35835
C         36.91690        12.43207         0.03875
C         38.47577        14.43883         0.13724
C         37.36187        13.65223         0.53630
C         38.67729        15.78638         0.55009
C         36.70279        16.86719         0.94619
C         38.17079        18.87525        -0.01551
C         36.86541        18.33849         0.72767
C         38.14734        20.39939         0.25603
C         36.97445        21.10167         0.20650
C         38.12128        23.38049         0.24117
C         36.91751        22.56684         0.50729
C         38.11508        24.75825         0.23241
C         36.89069        25.54654         0.56079
C         38.13844        27.65823        -0.23511
C         36.94250        27.07737         0.48675
C         38.10850        29.02505        -0.44967
C         36.90823        29.80709        -0.23849
C         36.90042        31.19226        -0.29247
C         39.59208        16.72635         0.09728
C         40.64890        18.92271         0.25888
C         39.50553        18.18196         0.29816
C         40.76081        20.41205         0.48977
C         39.40957        21.14136         0.54340
C         40.59361        23.32869        -0.19646
C         39.39787        22.63880         0.32760
C         40.51504        24.68029        -0.44539
C         39.32489        25.46672        -0.17907
C         39.29391        26.83598        -0.43345
C         41.72887        21.14181        -0.42995
C         41.70333        22.48478        -0.61531
O         20.38981        29.36476        -1.92985
O         36.31432        22.82956         1.81844
O         29.35839        17.29259        -1.99533
O          9.71820        21.71746        -1.01249
O         18.52816        31.84398        -1.68827
O         36.23190        25.24063         1.83842
O         22.78480        22.95707         1.91569
O          9.18664        26.30181         1.67629
O         22.28304        29.48150         1.30712
O         36.53025        14.16961         1.57698
O         15.05716        31.83045         1.65931
O         31.74793        21.76025         1.28421
O         11.32159        31.49502        -1.44383
O         17.39625        12.15687        -2.13022
O         18.73562        14.54171        -1.93056
O         21.44648        20.52203         2.02054
O         15.25364        22.92763         2.13577
O         35.78986        19.51092        -1.24240
O         20.07645        12.03199         0.56009
O         30.88126        37.32896        -1.60165
O         15.13644        18.59679        -1.03014
O         26.12030        20.83779        -1.75378
O         24.65426        34.94263        -1.46808
O         10.74207        24.02949         1.90984
O         19.26553         8.32938        -1.62338
O         25.77622         6.79364        -0.81085
O         37.76444        16.25666         1.56072
O         18.05312        28.16269        -1.74149
O         24.14086        25.34441         1.36532
O         39.41000        22.03806         1.70229
O         26.48560        31.64637         1.59643
O         26.59559        29.15607         1.31926
O         27.35245        36.62578        -1.25094
O         16.33799        16.11364         1.71292
O         15.42101        35.96920         1.95521
O         12.59938        20.64175         2.17572
O         10.85326        15.32602        -1.40298
O         15.34048        33.45536        -1.46845
O         21.23032         8.26562         1.42588
O         29.81175        25.34687         1.04270
O         28.66288        29.79623        -1.81328
O         16.91395        21.87051        -0.92441
O         12.67711        27.01073         1.81306
O         19.53245        17.11551         1.72337
O         26.75096        26.16460        -1.80918
O         33.77835        20.94477        -1.47153
O         17.61990         8.27298         1.54341
O         32.53092        27.26116        -1.86148
O         33.11504         7.34410        -1.49382
H         33.11945         8.24392        -1.88490
O         26.87440         8.78383         2.10685
H         25.95150         9.06362         2.31796
O         30.46683        11.95590         2.21669
H         30.39574        12.90611         2.45051
O         24.55351        39.64534         1.22209
H         24.57467        39.91568         0.27786
O         11.75625        13.84049         1.80811
H         12.34328        13.13533         2.15815
O         12.41569        28.86600        -1.74898
H         13.35908        29.02605        -2.01664
O         24.20968         8.91398         1.78925
H         23.26066         8.84159         2.04240
O         32.90912        36.10618         2.05307
H         33.44016        35.36104         2.40636
O         14.56574        25.11615        -1.47772
H         13.62729        25.10905        -1.79289
O         20.80886        10.18128        -2.51117
H         20.49093         9.28959        -2.78848
O         29.35068        35.52782        -2.10073
H         29.82261        36.34206        -2.45107
O         11.82986        25.39461        -1.37758
H         11.72671        26.32440        -1.68115
O         31.88182        31.16966         1.61900
H         31.96921        32.10796         1.92901
O          6.51679        21.65315         1.66835
H          5.62362        22.05442         1.60719
O         28.34077        36.47946         2.17900
H         28.45912        37.04134         2.97446
O         21.97377        12.59841        -2.54509
H         21.78760        11.70171        -2.91646
O         41.39143        20.50525         1.80081
H         40.99331        21.29428         2.24397
O         37.13075        27.56374         1.85373
H         36.65955        26.93061         2.44606
O          9.33705        29.62844         1.73302
H          9.30352        28.67676         1.97436
O         15.17421        29.21441        -1.77206
H         15.85359        28.88613        -2.40199
O          8.23551        19.88528         1.91606
H          7.69232        20.50655         2.45470
O         13.01249        11.64613        -2.03441
H         12.47737        10.85046        -2.27539
O         31.05586        19.17917        -2.29754
H         30.68227        18.40469        -2.78212
O         33.19843        33.30077        -1.94487
H         33.05354        34.22017        -2.29259
O         13.04076        10.60079         1.49344
H         13.08492         9.73795         1.95886
O         36.91711        18.86580         2.08478
H         37.63344        18.39583         2.56540
O         21.78413        27.04932         1.86330
H         22.58621        26.63870         2.25945
O         32.71631        35.74992        -1.62104
H         32.22465        36.51429        -2.05925
O         32.07232        33.92334         1.49592
H         31.38187        34.47125         1.92933
O         23.02050        16.28739        -2.14523
H         22.37414        15.62691        -2.47916
O         33.34876        23.40427        -1.61571
H         33.30462        22.49712        -2.00899
O         11.93156         9.24901        -1.77175
H         11.09963         8.79274        -2.01866
O         27.24271         9.02613        -1.53981
H         27.38379         9.77284        -2.15965
O         23.65779        38.45018        -1.00628
H         22.97729        38.22821        -1.67662
O         28.03719        23.46645         1.62680
H         28.73311        24.12887         1.86466
O         33.89632        22.33300         1.88639
H         34.71587        22.35220         2.43531
O          7.27658        22.18004        -1.88622
H          8.15302        21.72667        -1.96860
O         12.74483        35.82717         1.29489
H         14.45430        36.10403         2.09045
O         24.55089         8.96665        -1.88007
H         25.43360         8.52647        -1.96400
O         15.22654        29.34461         1.86513
H         14.53808        29.50870         2.54390
O          8.40414        19.43473        -1.66977
H          8.49171        18.62698        -2.21816
O         25.69891        34.04884         1.71701
H         26.23397        33.41044         2.24996
O         34.93365        26.47255        -1.78630
H         34.10480        26.35085        -2.31453
O         17.95133        37.48721         2.46457
H         17.11078        36.97742         2.56473
O         38.12046        18.61440        -1.42475
H         37.35323        19.09264        -1.82377
O         17.58948        30.89189         1.73942
H         16.82762        30.46539         2.20614
O         22.06529        34.40669        -2.05389
H         22.98418        34.71254        -2.25826
O         14.92374        35.96478        -1.71210
H         15.37216        35.20102        -2.14937
H          4.80999        18.51296        -0.59084
H          3.60093        20.66120        -0.66167
H          3.63804        23.11016        -0.74673
H          4.88704        25.25827        -0.56669
H          7.21733        14.20445        -0.10590
H          6.01935        16.31327        -0.21103
H          6.20293        27.36497        -0.78169
H          7.51871        29.56665        -0.74664
H          9.65361         9.79817        -0.04159
H          8.43665        11.97827         0.15196
H          8.82380        31.75143         0.82463
H          9.90024        34.07573         0.17001
H         12.30434         5.59240         1.05794
H         11.01798         7.61052         0.52768
H         11.09797        36.01309        -0.08665
H         12.46502        38.28122        -0.38855
H         14.44846         4.39781         1.20318
H         14.62530        39.45328        -0.20816
H         16.88558         4.35136         0.97907
H         17.03609        39.42588         0.31877
H         19.39262         4.27687         0.66186
H         19.51271        39.42060         1.13742
H         21.91796         4.29909         0.70719
H         21.91133        39.49868         0.88521
H         24.36087         4.36756         1.09972
H         24.14934        37.92326         2.28041
H         26.99826         4.33936         1.04485
H         26.99823        39.15046         1.60657
H         29.46467         4.36496         0.99629
H         29.56854        39.12644         1.59294
H         34.05867         5.58894         0.65184
H         31.94597         4.41727         1.12330
H         34.14272        38.31038         0.44480
H         31.97184        39.48215         0.66241
H         35.32294         7.77249         0.20095
H         36.49739         9.86831         0.11455
H         36.66854        33.86955        -0.00179
H         35.43227        35.91940         0.63856
H         37.60109        11.84062        -0.58823
H         39.13056        14.03881        -0.64939
H         39.00806        29.54249        -0.81885
H         37.85453        31.73128        -0.40016
H         40.45856        16.36110        -0.47606
H         41.61227        18.38821         0.28984
H         41.38402        25.19846        -0.88028
H         40.20894        27.31840        -0.81286
H         42.59446        20.57072        -0.79922
H         42.52202        22.97040        -1.16951
