         236
 CSIRO Nanostructure Databank - Neutral Graphene Oxide Data Set
C        -11.19211         0.63290         0.98748
C         -9.95589         1.44803         1.26714
C         -8.66019         0.65553         1.07681
C         -7.42838         1.41582         1.02747
C         -6.16512         0.68021         1.33582
C         -4.87130         1.36699         1.15414
C         -3.67442         0.65105         0.87624
C         -2.44522         1.42397         0.57780
C         -1.14004         0.71280         0.46531
C          0.07201         1.43322        -0.03100
C          1.24651         0.74439        -0.24608
C          2.50896         1.44343        -0.46042
C          3.67860         0.77326        -0.68481
C          4.99815         1.43182        -1.00201
C          6.14497         0.71464        -0.32085
C          7.50418         1.36680        -0.42725
C          8.59121         0.75519         0.41287
C          9.81957         1.45806         0.55570
C         11.01812         0.67576         0.83652
C         -9.84605         2.68845         0.43427
C         -8.72097         3.59872         0.78462
C         -7.40865         2.77218         0.81336
C         -6.19165         3.58089         1.03647
C         -4.87815         2.82102         1.27104
C         -3.54510         3.54499         1.25451
C         -2.45252         2.78974         0.51458
C         -1.27383         3.54998         0.00737
C          0.04177         2.87909        -0.14314
C          1.20681         3.60868        -0.34720
C          2.54800         2.91970        -0.15929
C          3.78805         3.60762        -0.70470
C          4.96666         2.93667        -0.82433
C          6.25266         3.66924        -0.73681
C          7.49032         2.90107        -0.37291
C          8.46641         3.54924         0.60326
C          9.80547         2.85687         0.53993
C         -8.54355         4.81132        -0.08432
C         -7.35620         5.51561        -0.07960
C         -6.13556         4.97198         0.51141
C         -4.96171         5.70696         0.52797
C         -3.67609         5.07325         0.97313
C         -2.42117         5.82312         0.65243
C         -1.25412         5.05302         0.10158
C          0.02742         5.75416        -0.13824
C          1.18164         5.05379        -0.42083
C          2.41802         5.79060        -0.82291
C          3.73300         5.07037        -0.98431
C          5.08212         5.83652        -1.09403
C          6.19551         5.09810        -0.40384
C          7.34169         5.76378         0.10430
C          8.48481         5.04694         0.47869
C         -7.31155         6.84093        -0.62804
C         -6.16965         7.61573        -0.55467
C         -4.94137         7.06470        -0.01759
C         -3.78695         7.85473        -0.08087
C         -2.49274         7.28659         0.31431
C         -1.24176         8.01389        -0.04699
C         -0.05278         7.20263        -0.42153
C          1.21134         7.98617        -0.67974
C          2.45046         7.24148        -0.64587
C          3.68833         8.00877        -0.54684
C          5.00867         7.31635        -0.70533
C          6.18402         7.95215        -0.05673
C          7.29029         7.21863         0.26031
C         -6.17738         8.97883        -1.03150
C         -5.04691         9.73834        -1.04897
C         -3.77990         9.18748        -0.63468
C         -2.60137         9.92683        -0.82317
C         -1.29540         9.39298        -0.60492
C         -0.10397        10.09771        -0.72932
C          1.18478         9.46113        -0.49982
C          2.34819        10.09859        -0.16091
C          3.57495         9.29733         0.25190
C          4.89040        10.04081         0.24632
C          6.07493         9.39131         0.18153
C        -11.17544        -0.71144         0.92946
C         -9.93266        -1.46841         0.96494
C         -8.67754        -0.73957         1.02518
C         -7.45030        -1.50899         0.99517
C         -6.18605        -0.82382         1.36577
C         -4.83858        -1.57859         1.41155
C         -3.67063        -0.75862         0.86787
C         -2.40408        -1.51363         0.79323
C         -1.11574        -0.78197         0.60177
C          0.02596        -1.51411         0.00141
C          1.32638        -0.74094         0.00290
C          2.40122        -1.42234        -0.80740
C          3.70160        -0.68652        -0.91415
C          4.95760        -1.40093        -0.66143
C          6.09511        -0.68525        -0.23018
C          7.22795        -1.43232         0.39263
C          8.51475        -0.65177         0.77379
C          9.75364        -1.43842         0.92844
C         10.98628        -0.67990         0.98812
C         -9.94685        -2.84356         0.87706
C         -8.73508        -3.58895         0.67146
C         -7.48158        -2.86413         0.72777
C         -6.22486        -3.61885         0.50506
C         -4.90342        -2.99088         0.78031
C         -3.74122        -3.46119        -0.10412
C         -2.41475        -2.99223         0.49273
C         -1.12188        -3.75167         0.21070
C         -0.00004        -2.85430        -0.27108
C          1.22126        -3.58554        -0.59937
C          2.40239        -2.89266        -0.72364
C          3.66834        -3.57837        -0.51722
C          4.97222        -2.86743        -0.68684
C          6.21673        -3.62762        -0.28145
C          7.35852        -2.87185         0.24786
C          8.50546        -3.57814         0.68178
C          9.70497        -2.81930         0.97829
C         -8.74350        -4.95559         0.42857
C         -7.60966        -5.59340        -0.25760
C         -6.32588        -4.80823        -0.40766
C         -5.05286        -5.49193        -0.95556
C         -3.73862        -4.95503        -0.40823
C         -2.58392        -5.61923        -0.75243
C         -1.27043        -5.02286        -0.60061
C         -0.09942        -5.67333        -0.94379
C          1.19895        -5.03658        -0.74188
C          2.39263        -5.74950        -0.78738
C          3.64446        -5.07642        -0.41032
C          4.98206        -5.80819        -0.49600
C          6.04798        -5.02770         0.29570
C          7.34759        -5.78616         0.46284
C          8.51311        -5.01186         0.68475
C         -7.53957        -7.05823        -0.39359
C         -6.36253        -7.71465        -0.62218
C         -5.10264        -7.01024        -0.86850
C         -3.95734        -7.70603        -1.09794
C         -2.70653        -6.95720        -1.49672
C         -1.42382        -7.81590        -1.40849
C         -0.11300        -7.11278        -1.30379
C          1.13704        -7.92331        -1.05880
C          2.45359        -7.21913        -0.97847
C          3.71542        -8.01635        -0.58474
C          4.84365        -7.20684         0.01072
C          5.93722        -7.84483         0.57404
C          7.20410        -7.15624         0.72382
C         -6.31845        -9.17509        -0.60312
C         -5.20261        -9.86881        -0.89368
C         -3.94085        -9.19316        -1.36003
C         -2.68636        -9.84053        -0.80580
C         -1.47669        -9.22272        -0.90469
C         -0.25489        -9.85375        -0.41884
C          0.99484        -9.27988        -0.47505
C          2.16722        -9.87708         0.14001
C          3.40266        -9.27264         0.20107
C          4.54116        -9.86637         0.87513
C          5.74407        -9.22794         0.99828
O          1.97614        -7.76153        -2.26393
O          7.47713        -0.97331         1.76698
O         -5.67420         3.37193         2.38951
O         -1.69073         8.01109         1.33748
O         -7.31417        -4.72816        -1.45162
O          5.89167        -3.44286        -1.68791
O         -8.82585         4.11233         2.13220
H         -9.20013         3.38358         2.68913
O         -6.34257        -0.05220         2.60489
O          2.91749         5.32197        -2.17465
O          3.53070        -4.26630         0.79003
O         -2.40652        -2.55749         1.86469
O          7.87634         3.23796         1.92553
H          8.49351         3.56378         2.61403
O         -4.55233        -1.76539         2.81337
H         -4.84299        -2.67381         3.05532
O          0.33664         7.51544        -1.79224
O        -10.02331         1.80523         2.68824
H         -9.82294         1.00069         3.21156
O         -5.43490        -3.97211         1.72120
O         -3.88721        -9.33794        -2.81679
H         -3.60358        -8.46647        -3.18989
O         -3.06527         3.41582         2.61995
H         -3.79223         3.71498         3.21133
O         -0.62721        -7.55721        -2.61528
O          2.75924         3.01768         1.30250
H          2.11860         2.41495         1.73897
O          2.84359        -0.98072        -2.11395
O          5.43986         5.78387        -2.49563
H          4.61653         5.98507        -2.99950
O          5.19198         1.23094        -2.44107
H          6.14428         1.02472        -2.59469
O         -3.91475        -2.86909        -1.37295
O          5.39198        -5.91722        -1.87638
H          5.13604        -6.81637        -2.20179
O          1.81774        -0.84501         1.38352
H          1.06878        -0.56645         1.96612
O         -2.90783        -6.65438        -2.90116
H         -2.00827        -6.59216        -3.30724
O         -2.88274         5.72041         2.02782
O         -4.98995        -5.11834        -2.34675
H         -4.64928        -4.17675        -2.34970
O          4.31303        -8.48932        -1.84592
H          3.54697        -8.64252        -2.45718
O          5.61953        -4.90178         1.67600
H          6.31551        -4.41639         2.16647
O          3.33676         8.86144         1.63090
H          3.23356         9.66027         2.18955
O         -0.62521        -4.25386         1.48776
H         -0.91554        -3.60955         2.17822
O          7.92783         1.01658        -1.80379
H          8.01298         1.87377        -2.29688
O          4.45897         8.13177        -1.79646
O          7.40024         3.44430        -1.70703
O         -0.77620         0.05129         1.76531
O         -1.67415         4.37136        -1.15586
H         11.92280        -1.22940         1.16740
H         11.97641         1.21051         0.91200
H         10.73785         3.42895         0.65896
H          9.36198         5.59528         0.85549
H          8.16135         7.71627         0.71352
H          7.01191         9.95557         0.31141
H          4.87331        11.12734         0.42572
H          2.35798        11.19067        -0.01750
H         -0.12897        11.17292        -0.96296
H         -2.68875        10.94775        -1.22578
H         -5.07489        10.77040        -1.42739
H         -7.13040         9.39417        -1.39031
H         -8.23235         7.26374        -1.05641
H         -9.42979         5.26629        -0.55236
H        -10.06814         2.56120        -0.63934
H        -12.14815         1.17515         0.94971
H        -12.11206        -1.27526         0.80177
H        -10.90846        -3.37627         0.83283
H         -9.67998        -5.52448         0.54149
H         -8.45487        -7.63721        -0.19561
H         -7.24352        -9.70389        -0.32502
H         -5.21519       -10.96922        -0.87385
H         -2.74548       -10.86531        -0.40550
H         -0.36184       -10.85038         0.03831
H          2.02952       -10.85075         0.63805
H          4.41847       -10.87447         1.30060
H          6.58099        -9.74125         1.49492
H          8.07432        -7.74144         1.06103
H          9.45619        -5.52401         0.93241
H         10.63777        -3.37990         1.14631
