         404
 CSIRO Nanostructure Databank - Neutral Graphene Oxide Data Set
C          1.34051         1.76053         0.77842
C          1.26805         2.98483         0.07903
C          2.56601         1.31500         1.21704
C          2.40399         3.76940        -0.06414
C          1.19908         6.80387        -0.00556
C          1.23424         8.07523         0.55291
C          2.38170         6.07116        -0.15779
C          2.47292         8.66808         0.86813
C          1.36569        10.87134         1.43492
C          1.40720        12.25252         1.50724
C          2.52749        10.11370         1.13357
C          2.57820        12.97687         1.16585
C          1.55167        15.23472         1.61650
C          1.62167        16.61382         1.57394
C          2.62363        14.42412         1.14945
C          2.75810        17.27650         1.03703
C          2.84270        18.70808         0.98646
C          3.75010         2.08942         1.00774
C          3.67963         3.42520         0.46722
C          4.99458         1.48386         1.22454
C          4.86640         4.25540         0.40576
C          3.63798         6.53420         0.29243
C          3.65676         7.89621         0.72041
C          4.86592         5.70967         0.29852
C          4.95727         8.54904         0.88905
C          3.72837        10.81634         0.93062
C          3.74757        12.23301         0.83479
C          5.00499        10.08739         0.89828
C          4.92132        12.89422         0.32324
C          3.77588        15.06599         0.62047
C          3.83606        16.49839         0.54096
C          4.86974        14.28326         0.13704
C          4.97790        17.16083        -0.01563
C          3.94359        19.34091         0.47120
C          5.05021        18.58900        -0.05253
C          6.17778         2.15916         0.87352
C          6.12530         3.57363         0.56039
C          7.39536         1.44846         0.84905
C          7.36611         4.24427         0.40996
C          6.10668         6.40008         0.33421
C          6.15819         7.83582         0.44656
C          7.37196         5.68558         0.29649
C          7.34772         8.56755         0.33341
C          6.20027        10.74670         0.37203
C          6.12881        12.13454         0.02288
C          7.38393        10.00455         0.19836
C          7.27432        12.76058        -0.49802
C          5.91047        14.94987        -0.65507
C          6.02499        16.41593        -0.61502
C          7.16696        14.13369        -0.99409
C          7.14405        17.04741        -1.18972
C          6.20550        19.21412        -0.55491
C          7.32264        18.48642        -1.05172
C          8.61042         2.09029         0.54596
C          8.60079         3.52474         0.39507
C          9.83258         1.38519         0.47437
C          9.83697         4.18902         0.21202
C          8.57750         6.36972         0.29795
C          8.60662         7.82462         0.34845
C          9.91810         5.67881         0.40161
C          9.88958         8.55757        -0.06704
C          8.58785        10.67336        -0.26293
C          8.53411        12.08011        -0.61223
C          9.78069         9.96324        -0.47052
C          9.69576        12.75090        -1.05981
C          8.35809        14.87747        -1.40833
C          8.16400        16.20379        -1.75522
C          9.65530        14.17599        -1.50668
C         10.04126        17.30891        -1.70418
C          8.55367        19.20245        -1.16536
C          9.87270        18.65056        -1.23766
C         11.04695         2.05183         0.20730
C         11.03840         3.48713         0.03789
C         12.27916         1.36446         0.19627
C         12.26847         4.18084        -0.28362
C         10.92653         6.27438        -0.59171
C         11.04073         7.77443        -0.50503
C         12.25959         5.56477        -0.53975
C         12.18974         8.42335        -0.93908
C         10.98261        10.60606        -0.90465
C         10.95989        12.05161        -1.07919
C         12.17118         9.86656        -1.04836
C         12.16243        12.75534        -1.16142
C         10.97913        14.99503        -1.45366
C         11.07802        16.47621        -1.30292
C         12.14619        14.21844        -0.95580
C         12.24872        17.13380        -0.79842
C         11.03406        19.28921        -0.74945
C         12.25233        18.56244        -0.61564
C         13.50523         2.04272        -0.00708
C         13.51028         3.45324        -0.31921
C         14.72907         1.35323         0.06973
C         14.72445         4.10402        -0.62534
C         13.44154         6.27554        -0.88809
C         13.41738         7.65805        -1.08732
C         14.69449         5.48746        -1.24250
C         14.67418         8.35670        -1.44479
C         13.46292        10.57185        -1.06753
C         13.45631        12.07991        -1.02605
C         14.68450         9.85277        -1.54361
C         14.69708        12.82346        -1.26085
C         13.41537        14.92798        -0.62825
C         13.45080        16.40986        -0.57431
C         14.69544        14.24754        -0.98342
C         14.62249        17.03763        -0.16745
C         13.47095        19.19204        -0.24151
C         14.65622        18.46206        -0.02299
C         15.95616         2.02454        -0.11864
C         15.95401         3.41928        -0.49261
C         17.17831         1.33692         0.05053
C         17.21123         4.09274        -0.68382
C         15.98388         6.26244        -1.06660
C         15.97102         7.66545        -1.21407
C         17.21711         5.53642        -0.92537
C         17.15431         8.43755        -1.09645
C         15.99230        10.61147        -1.53330
C         15.98365        12.13060        -1.39263
C         17.21373         9.87652        -1.13139
C         17.22254        12.80098        -0.93610
C         15.97064        14.95478        -0.61153
C         15.76823        16.16484         0.30640
C         17.22236        14.15682        -0.54177
C         17.07915        16.91294         0.54159
C         15.89858        19.10425         0.30241
C         17.08970        18.39836         0.50368
C         18.41366         1.99430        -0.10734
C         18.40944         3.38453        -0.49685
C         19.63787         1.30513         0.09471
C         19.71480         4.02750        -0.69428
C         18.42564         6.23941        -0.97044
C         18.42201         7.69882        -1.10144
C         19.72142         5.54846        -0.93735
C         19.69714         8.45552        -0.81216
C         18.38216        10.60232        -0.86065
C         18.42291        12.04720        -0.82502
C         19.58142         9.88975        -0.28947
C         19.65180        12.75373        -0.61049
C         18.41809        14.80331        -0.17522
C         18.38204        16.18918         0.33445
C         19.66648        14.14416        -0.33969
C         19.64268        16.94818         0.33631
C         18.33256        19.04014         0.69214
C         19.57978        18.35951         0.67987
C         20.88774         1.97668         0.10840
C         20.92596         3.37612        -0.15890
C         22.11335         1.29815         0.37815
C         22.12673         4.09638         0.02134
C         20.92560         6.29116        -0.50787
C         20.86258         7.66018        -0.37847
C         22.13580         5.54861        -0.13378
C         22.07446         8.43074        -0.04584
C         20.87214        10.66236        -0.45799
C         20.91550        12.04278        -0.59380
C         22.10195         9.92416        -0.17156
C         22.17192        12.78699        -0.68393
C         20.92055        14.87320        -0.20925
C         20.84551        16.27269         0.16999
C         22.15701        14.22940        -0.52611
C         22.08089        17.00288         0.52849
C         20.76979        19.07941         0.90416
C         22.04496        18.46775         0.80424
C         23.32264         1.98577         0.44805
C         23.32311         3.39896         0.34495
C         24.60321         1.23358         0.77296
C         24.57883         4.12802         0.62913
C         23.31109         6.24423         0.03907
C         23.33400         7.67832        -0.28532
C         24.57267         5.62651         0.46291
C         24.61076         8.42441        -0.28655
C         23.38015        10.60510        -0.43326
C         23.37264        12.00230        -0.77398
C         24.57203         9.89386        -0.31828
C         24.63647        12.49983        -1.21985
C         23.38748        15.04318        -0.51669
C         23.38066        16.34564         0.20654
C         24.59117        14.72394        -1.11420
C         24.56983        17.24887         0.04430
C         23.21927        19.17282         1.03362
C         24.52683        18.65239         0.60209
C         25.89147         2.01721         0.57478
C         25.88050         3.43632         0.52808
C         27.10876         1.34949         0.56032
C         27.08460         4.17877         0.42356
C         25.85673         6.33749         0.25680
C         25.86329         7.72077         0.02802
C         27.08112         5.62321         0.33285
C         27.07099         8.46438         0.06833
C         25.83221        10.55018        -0.38917
C         25.84562        11.87227        -0.92946
C         27.03198         9.88441        -0.09388
C         27.14498        12.47627        -1.14440
C         25.87241        15.33968        -0.76949
C         25.87599        16.58457        -0.08891
C         27.11579        14.73262        -1.00926
C         27.06940        17.22280         0.25262
C         25.80987        19.23736         0.99280
C         27.03256        18.58471         0.77986
C         28.34630         2.05558         0.44937
C         28.33551         3.49119         0.34910
C         29.57350         1.37609         0.45644
C         29.55786         4.20458         0.17032
C         28.31158         6.34234         0.22161
C         28.30499         7.75923         0.16452
C         29.56243         5.63225         0.12997
C         29.54329         8.50575         0.10855
C         28.25857        10.70248         0.19214
C         28.28334        12.03735        -0.54675
C         29.51130         9.88926         0.01836
C         29.53282        12.87315        -0.56611
C         28.32466        15.17686        -0.39201
C         28.30481        16.50338         0.15397
C         29.52263        14.37073        -0.31272
C         29.52019        17.11854         0.57138
C         28.27074        19.21354         1.06175
C         29.51283        18.53192         0.94642
C         30.80485         2.05226         0.22556
C         30.79679         3.49537         0.01384
C         32.01138         1.35429         0.28206
C         31.99056         4.19709        -0.23294
C         30.78481         6.34560        -0.00515
C         30.80303         7.78041         0.04348
C         32.02060         5.63841        -0.19526
C         32.02463         8.47044        -0.02087
C         30.73914        10.66026         0.15004
C         30.77552        12.10592        -0.23629
C         32.06031         9.92298         0.18112
C         32.01108        12.78229         0.25516
C         30.69644        14.99809         0.14103
C         30.70894        16.37350         0.51860
C         31.97213        14.25721         0.39005
C         31.98716        16.99687         0.93078
C         30.71982        19.21445         1.10701
C         31.99469        18.50456         1.18404
C         33.23712         1.94597        -0.23774
C         33.21632         3.43788        -0.54075
C         34.55001         1.21239        -0.03466
C         34.52375         4.16691        -0.65653
C         33.22760         6.36573        -0.35402
C         33.25910         7.78429        -0.25011
C         34.50522         5.67047        -0.61301
C         34.48972         8.51656        -0.34844
C         33.29193        10.67766        -0.11576
C         33.29283        12.07997        -0.01384
C         34.49208         9.95928        -0.34417
C         34.49661        12.81710        -0.10064
C         33.26646        14.97133         0.30932
C         33.26488        16.36032         0.53078
C         34.47684        14.27228         0.08206
C         34.46345        17.10494         0.47234
C         33.26614        19.20664         0.95022
C         34.42265        18.54922         0.65302
C         35.79747         2.08078        -0.05965
C         35.78404         3.47741        -0.30088
C         37.01098         1.42899         0.14982
C         36.98488         4.22807        -0.23646
C         35.76933         6.39216        -0.37260
C         35.74920         7.81216        -0.36180
C         36.98517         5.68048        -0.31646
C         36.98049         8.51883        -0.41106
C         35.69618        10.70785        -0.48429
C         35.70478        12.10457        -0.33875
C         36.95843         9.96526        -0.70886
C         37.02087        12.82096        -0.07664
C         35.67872        15.02452         0.01399
C         35.68815        16.42752         0.18985
C         36.93329        14.32976        -0.34234
C         36.95245        17.15665         0.25577
C         35.67069        19.35613         0.37554
C         36.94860        18.56452         0.51290
C         38.23298         2.13452         0.14284
C         38.22016         3.54933        -0.02597
C         39.47975         1.45243         0.32393
C         39.45264         4.27534         0.01145
C         38.21756         6.40539        -0.26121
C         38.21446         7.83023        -0.37353
C         39.45956         5.69865        -0.12134
C         39.47085         8.56180        -0.36638
C         38.26443        10.70897        -0.84419
C         38.26506        12.24215        -0.92191
C         39.50020         9.98134        -0.47554
C         39.51223        12.91566        -0.38097
C         38.23461        15.08258        -0.26651
C         38.18591        16.48283         0.18440
C         39.49370        14.30615        -0.12645
C         39.40390        17.14496         0.50641
C         38.13165        19.23070         0.76787
C         39.37499        18.53954         0.80995
C         40.66004         2.14622         0.33757
C         40.67415         3.56979         0.18687
C         41.89066         4.29592         0.21319
C         40.69092         6.40491        -0.07629
C         40.69237         7.85205        -0.18403
C         41.89537         5.67066         0.08564
C         41.89577         8.58875        -0.10532
C         40.69783        10.70303        -0.27979
C         40.69172        12.16918        -0.17089
C         41.89644         9.97145        -0.12264
C         41.85081        12.85785         0.25076
C         40.66537        14.98409         0.28851
C         40.64657        16.43056         0.53896
C         41.84329        14.22759         0.45907
C         41.81273        17.14037         0.83782
C         40.58549        19.21501         1.11104
C         41.78110        18.52001         1.11491
O          9.55175         8.35476         1.37042
O         32.01395        17.51749         2.29339
O         19.92883         4.60182        -2.03134
O         19.33593         8.21736        -2.19093
O         24.42127        18.34669        -0.89297
O         33.06682         2.44575        -1.61505
O         10.46807        14.46024        -2.69841
O         14.52994         9.05694        -2.75271
O         16.15913        11.44496        -2.71086
O         37.60225        10.17186        -2.04336
O          9.09086        16.82696        -2.60000
O         22.05390         9.22692         1.18879
O         23.98496         7.92833        -1.57788
O         12.57966        14.41697         0.45895
O         34.56809         4.93646        -1.90403
O         31.87683        13.37516         1.58485
O         37.32333        12.61345         1.25024
O         27.17760        13.66038        -1.89533
O         22.86642        16.28181         1.57057
O         13.65413        11.23687         0.23421
O         31.41346        10.39085         1.42770
O         37.53021        14.85955        -1.54976
O         15.45822        15.09689        -1.96173
O          2.27517         4.88946        -0.89294
O         30.46702        12.41328        -1.63089
O          5.19149         9.29657         2.12322
O         17.76247        16.33663         1.70253
O          6.07417        14.32795        -1.96967
O         24.47853         5.01091         1.80821
O         24.64895        13.65243        -2.01352
O         10.37677         6.02080        -1.92932
H         11.08152         6.20685        -2.58578
O         10.42252         5.85990         1.74992
H         10.26643         6.80783         1.99292
O         34.65493         0.19751        -1.04386
H         34.42027         0.62031        -1.89834
O         24.54422         0.80027         2.14734
H         24.52113         1.59828         2.71528
O         15.32775        15.62941         1.57824
H         16.11867        15.59883         2.16846
O         19.34712         9.76502         1.15148
H         20.22661         9.58216         1.56929
O         38.12564        12.60357        -2.28373
H         37.67999        11.85133        -2.74424
O         28.20508        11.01242         1.63796
H         29.11587        10.96289         2.00332
O         14.57970         5.24557        -2.69136
H         14.71466         6.10424        -3.14793
O         35.69987        20.53960         1.17750
H         35.73685        20.26954         2.11788
H          0.43737         1.15098         0.91577
H          0.32614         3.31295        -0.37847
H          2.66675         0.32628         1.68603
H          0.25376         6.37332        -0.35970
H          0.30097         8.64420         0.65250
H          0.41859        10.36009         1.65494
H          0.49207        12.79370         1.78380
H          0.65361        14.76111         2.03620
H          0.78517        17.21603         1.95723
H          2.00096        19.29746         1.37866
H          5.04241         0.44231         1.57358
H          3.99144        20.43930         0.44718
H          7.38520         0.36734         1.05156
H          6.27911        20.31078        -0.49224
H          9.83781         0.29804         0.64286
H          8.49664        20.26796        -0.88578
H         12.29353         0.27979         0.38050
H         10.99456        20.34309        -0.43783
H         14.73280         0.27933         0.30761
H         13.48540        20.28462        -0.11400
H         17.16200         0.27629         0.34126
H         15.92608        20.20415         0.33052
H         19.60792         0.22676         0.30834
H         18.34455        20.13540         0.80143
H         22.09510         0.21187         0.54902
H         20.71020        20.15288         1.13687
H         24.64431         0.29979         0.15465
H         23.16129        20.21530         1.38212
H         27.13033         0.25262         0.63998
H         25.80748        20.21171         1.50423
H         29.58616         0.28387         0.58549
H         28.27474        20.26478         1.38598
H         32.02941         0.31549         0.64294
H         30.71490        20.31100         1.20153
H         34.51426         0.68406         0.95582
H         33.27196        20.30695         0.99082
H         37.01585         0.33993         0.30044
H         35.61351        19.70615        -0.69573
H         39.47159         0.35998         0.44768
H         38.11000        20.31560         0.94831
H         41.61584         1.61930         0.47179
H         42.83771         3.75207         0.34063
H         42.85986         6.19392         0.11399
H         42.85691         8.07043         0.00393
H         42.85757        10.49220        -0.02790
H         42.78466        12.31195         0.43646
H         42.77167        14.71103         0.79028
H         42.78490        16.63030         0.86092
H         40.56189        20.29032         1.33819
H         42.72073        19.04239         1.34327
