         261
 CSIRO Nanostructure Databank - Neutral Graphene Oxide Data Set
C        -10.41822         0.65977         2.59341
C         -9.58607         1.70616         1.93955
C         -8.44113         0.87511         0.19503
C         -7.55677         1.21924        -0.96514
C         -6.16201         0.59622        -1.03263
C         -5.02287         1.33829        -1.69007
C         -3.65838         0.63863        -1.79622
C         -2.45826         1.41985        -2.40725
C         -1.12200         0.82850        -1.91367
C          0.15302         1.60200        -1.97608
C          1.47561         0.86076        -2.33571
C          2.68723         1.54372        -1.66336
C          3.82698         0.72136        -1.07722
C          5.04076         1.41197        -0.55161
C          6.11500         0.65019         0.18324
C          7.38811         1.37947         0.44119
C          8.46546         0.75205         1.27915
C          9.80786         1.39611         1.06318
C         10.88083         0.48950         0.58839
C         -9.50664         1.93682         0.42718
C         -8.73629         3.19075        -0.11100
C         -7.62394         2.73407        -1.00835
C         -6.42451         3.54904        -1.40260
C         -5.13793         2.84492        -1.82358
C         -3.84682         3.66087        -1.90737
C         -2.50979         2.98112        -2.24133
C         -1.22726         3.81178        -2.16439
C          0.12977         3.11018        -2.17593
C          1.36817         3.82137        -1.69428
C          2.61256         3.00810        -1.34742
C          3.63979         3.57961        -0.39603
C          4.91124         2.84665        -0.13453
C          6.17736         3.57736         0.26708
C          7.48579         2.84295        -0.06013
C          8.71777         3.57961         0.44081
C          9.83972         2.85974         0.72808
C         -8.57247         4.52972         0.49980
C         -7.52468         5.31824         0.15654
C         -6.42036         4.93510        -0.79162
C         -5.07765         5.61117        -0.62752
C         -3.85405         5.07458        -1.34657
C         -2.56756         5.87882        -1.22352
C         -1.26807         5.27590        -1.69703
C          0.02791         6.00667        -1.31630
C          1.22037         5.15206        -1.00033
C          2.38963         5.75666        -0.28843
C          3.71569         5.07189        -0.42037
C          4.98963         5.79057        -0.14113
C          6.22702         5.06497         0.27977
C          7.54019         5.76939         0.21969
C          8.68883         5.04100         0.33812
C         -7.50237         6.76723         0.61916
C         -6.12048         7.15862         1.12969
C         -4.89217         6.49731         0.57495
C         -3.54985         7.13298         0.82644
C         -2.42727         6.92123        -0.13548
C         -1.37938         8.05030        -0.35412
C          0.01171         7.43942        -0.81781
C          1.26803         8.09808        -0.24087
C          2.38284         7.17053         0.21415
C          3.66160         7.87390         0.56286
C          4.94903         7.27186         0.08295
C          6.23246         8.03064         0.13590
C          7.58941         7.30130         0.16823
C         -5.97674         8.53376         1.66925
C         -4.77730         9.07300         1.92442
C         -3.51718         8.24263         1.88854
C         -2.27332         9.08452         1.79271
C         -1.25090         8.91804         0.92317
C         -0.07981         9.79198         1.02739
C          1.10493         9.33005         0.58916
C          2.35260         9.90179        -0.03534
C          3.59059         9.39434         0.77841
C          4.93245        10.08540         0.63668
C          6.12119         9.45798         0.55999
C        -10.42135        -0.65036         2.27650
C         -9.71869        -1.18057         1.04660
C         -8.39386        -0.44656         0.82613
C         -7.02866        -1.14411         0.72439
C         -5.87644        -0.54616        -0.07487
C         -4.44958        -1.20491        -0.04804
C         -3.50530        -0.71922        -1.15562
C         -2.16274        -1.39999        -1.14419
C         -1.01571        -0.68871        -1.76809
C          0.15715        -1.48423        -2.28085
C          1.45896        -0.70809        -2.22111
C          2.47385        -1.42879        -1.34487
C          3.55408        -0.67853        -0.62715
C          4.55632        -1.34481         0.31285
C          5.75945        -0.62827         0.86665
C          6.90574        -1.32180         1.62867
C          8.31597        -0.74902         1.34550
C          9.45932        -1.57541         0.66185
C         10.66692        -0.80683         0.26215
C         -9.53923        -2.67538         0.90923
C         -8.34077        -3.28941         0.79587
C         -7.02712        -2.61753         1.21042
C         -5.77690        -3.40458         0.66196
C         -4.55332        -2.73509         0.09185
C         -3.42624        -3.55610        -0.50322
C         -2.21780        -2.90292        -1.08603
C         -1.19179        -3.72268        -1.81928
C          0.12834        -3.01517        -2.10087
C          1.40354        -3.75561        -1.78628
C          2.62288        -2.92969        -1.43157
C          3.73207        -3.58032        -0.65762
C          4.52031        -2.84379         0.38884
C          5.63807        -3.56052         1.07230
C          6.91205        -2.84872         1.47665
C          7.93218        -3.58738         0.55460
C          9.05929        -2.81001         0.02627
C         -8.19510        -4.69828         0.29966
C         -7.14138        -5.55205         0.96409
C         -6.09238        -4.81723         0.17390
C         -4.94276        -5.64323        -0.37118
C         -3.63720        -5.01878        -0.75328
C         -2.34101        -5.85389        -0.72977
C         -1.24006        -5.21382        -1.60706
C          0.07202        -5.95810        -1.46472
C          1.23081        -5.07061        -1.05011
C          2.37497        -5.68715        -0.31793
C          3.73365        -5.07919        -0.47776
C          4.97198        -5.75971         0.01849
C          6.12211        -4.90981         0.52796
C          7.06633        -5.59573         1.49608
C          8.09953        -4.54849         1.80651
C         -7.12821        -6.88016         1.20317
C         -5.88118        -7.66625         0.99924
C         -4.82529        -7.06920         0.11100
C         -3.85081        -7.95491        -0.62318
C         -2.57271        -7.32806        -1.08816
C         -1.30936        -8.23912        -1.23954
C          0.02534        -7.42446        -1.11035
C          1.06059        -7.94561        -0.13343
C          2.24436        -7.08800         0.22252
C          3.46784        -7.71746         0.84381
C          4.84432        -7.16601         0.57412
C          5.97633        -7.80563         1.32166
C          7.07935        -6.91441         1.77202
C         -5.93552        -9.14945         1.06499
C         -5.02359        -9.93625         0.47515
C         -3.86761        -9.46906        -0.37764
C         -2.52683        -9.93326         0.17767
C         -1.35611        -9.42131        -0.24677
C         -0.06980       -10.23579        -0.14040
C          1.13569        -9.39273         0.21178
C          2.16182        -9.90474         0.93762
C          3.36166        -9.13226         1.34104
C          4.60578        -9.81734         1.78903
C          5.75384        -9.13290         1.96350
O          4.64712        -5.74007        -1.39816
O          0.92386        -1.20171        -3.46740
O         -8.05357         0.78775         1.68940
O          3.25980         2.54291        -2.56030
O          2.89149         7.18029         1.59283
O          0.23051         7.13586        -2.20891
O          3.83652         2.94063         0.88058
O          2.06707         9.00200        -1.18870
O         -5.93147         0.50785        -2.46745
O         -6.05269         6.07846        -1.61775
O          5.48896         7.91014        -1.12359
O          2.23551        -0.86859        -0.01167
O         -3.63104        -7.60008        -2.01826
O          6.08387         4.26970         1.52933
O         -6.09407        -0.20944         1.32037
O          4.38153        -3.41566         1.73797
O         -0.53179         1.40752        -0.70192
O         -2.44723         6.19077         1.14062
O          1.04606         3.73665        -3.10745
O         -7.20658        -4.55098        -0.82651
O          4.51657        -0.64759         1.59450
O         -1.10403        -0.92594        -0.29922
O         -4.63207        -3.18318         1.49763
O         -4.62467        -5.35205        -1.75703
O         -4.10812         4.80819        -2.74275
O          9.26082        -1.46796         2.13277
O          7.58930         2.87463        -1.44592
O          0.49096        -6.97129        -2.41474
O          0.90500        -3.69428        -3.12996
O         -1.65455        -4.62494        -2.86264
O         -2.23520        -3.32280         0.32583
O         -8.88507         3.20473        -1.56241
O          3.17617        -7.97293         2.25124
O          9.17223         1.29029         2.41040
O         -2.04585         6.17681        -2.52678
O          4.55529         5.50916        -1.52274
O          7.46971        -3.53207         2.66995
O          1.08747        -7.15990         1.10172
O         -7.04639        -2.65424         2.59427
O          4.99773         0.93722        -1.92231
O         -1.36585        -8.91045        -2.44596
O         -1.92134         3.60058        -3.42124
O         -3.91274        -0.62155        -2.52458
O         -4.64923        -7.09240         1.56482
O         -6.10539         3.33008        -2.79875
O          3.91326        -3.22984        -2.05630
O          7.15195        -4.35611        -0.42013
O          1.40398         4.94833         0.44102
O         -1.86753         8.93092        -1.29217
O          7.26762         0.44163        -0.69175
O          5.80212        -8.00600        -0.14167
O         -5.50155         6.02338         1.82441
O          1.42586        -4.80248         0.36978
O          3.25420         9.64679         2.16603
H          2.85623         8.81747         2.52410
O          6.67743        -1.02138         3.01042
H          7.21799        -1.64437         3.54415
O         -2.52419         1.15124        -3.80999
H         -2.16540         1.93071        -4.29569
O        -10.58375        -0.76567        -0.04969
H        -10.35696        -1.28358        -0.85196
O         -3.45657         7.57438         3.17523
H         -2.83519         6.81938         3.07286
O         -3.99329       -10.13526        -1.64964
H         -3.30268        -9.74256        -2.24223
O         -9.28552         2.76117         2.68948
H         -9.34391         2.56749         3.64749
O         -1.83973        -5.91690         0.61373
H         -1.73816        -5.00106         0.96971
O         -8.33688         0.65338        -2.04219
H         -7.81616         0.77679        -2.87135
O          8.34140         7.77681         1.29268
H          7.98621         7.36866         2.10885
O         -7.93042         7.62440        -0.43724
H         -7.38935         7.41686        -1.23516
O         -0.21311       -11.30859         0.78070
H         -0.26094       -10.93655         1.68530
O         -3.78326        -0.71964         1.11953
H         -4.03104        -1.30424         1.87431
O          1.59361         1.08685        -3.74540
H          2.09919         1.92497        -3.88363
H         11.46581        -1.37234        -0.24117
H         11.83023         0.95663         0.28368
H         10.78613         3.38522         0.93996
H          9.65227         5.57310         0.39132
H          8.16027         7.61046        -0.74544
H          7.05352        10.03782         0.63326
H          4.91810        11.16414         0.85735
H          2.37597        10.97814        -0.31579
H         -0.18877        10.79287         1.47071
H         -2.13360         9.79628         2.62309
H         -4.70062        10.11281         2.27427
H         -6.89414         9.13602         1.74418
H         -8.23250         6.89197         1.45973
H         -9.35400         4.92035         1.16856
H        -10.46761         1.79823        -0.11187
H        -10.96434         0.99418         3.49041
H        -11.00805        -1.34976         2.88932
H        -10.46355        -3.24033         0.70498
H         -9.15110        -5.17526        -0.01677
H         -8.05322        -7.41895         1.45943
H         -6.76357        -9.60052         1.63380
H         -5.12620       -11.02889         0.56207
H         -2.51244       -10.86089         0.77348
H          0.08956       -10.68808        -1.15760
H          2.13327       -10.97407         1.20196
H          4.51860       -10.85368         2.14888
H          6.62617        -9.61820         2.42689
H          7.87279        -7.34166         2.40514
H          9.09568        -4.87884         2.17099
H          9.49835        -3.08705        -0.94281
