         429
 CSIRO Nanostructure Databank - Neutral Graphene Oxide Data Set
C          1.29957         3.33372        -1.19053
C          0.15575         4.02844        -1.58293
C          1.26260         6.15019        -1.13289
C          0.14555         5.42408        -1.57118
C          1.25295         7.66256        -1.29370
C         -0.03647         8.33693        -0.89456
C          1.11966        10.48833        -0.57768
C         -0.07965         9.66470        -0.65248
C          1.06723        11.86677        -0.42767
C         -0.15189        12.63214        -0.44654
C          1.09747        14.75777        -0.48085
C         -0.13687        13.99892        -0.39066
C          1.04869        16.24878        -0.65134
C         -0.16319        17.01788        -0.33705
C          1.12601        19.09929        -0.00850
C         -0.11756        18.35849        -0.12518
C          1.13399        20.52604         0.22547
C         -0.06790        21.25181         0.48736
C          1.04766        23.38089        -0.04327
C         -0.11781        22.61422         0.41701
C          1.00101        24.91291        -0.05474
C         -0.16442        25.68094         0.42402
C          1.17842        27.74477         0.66530
C         -0.08019        27.00725         0.67902
C          1.18512        29.20223         0.81220
C         -0.01528        29.95077         0.93593
C          1.21287        32.06777         0.89613
C          0.00449        31.33136         0.98533
C          1.24115        33.51120         1.01331
C          0.07385        34.26510         1.29377
C          1.32799        36.34805         1.28101
C          0.12291        35.64459         1.45335
C          1.41090        37.77847         1.51684
C          3.66042         3.26761        -0.31794
C          2.43801         4.03417        -0.77070
C          3.63334         6.15745        -0.26282
C          2.41367         5.44183        -0.72594
C          3.64916         7.66393        -0.31381
C          2.43043         8.39343        -0.69812
C          3.62033        10.50918        -0.35169
C          2.40083         9.77579        -0.54551
C          3.59510        11.90423        -0.24768
C          2.29981        12.63992        -0.01332
C          3.57794        14.82847        -0.80156
C          2.29522        14.08814        -0.45607
C          3.57989        16.19728        -0.06473
C          2.36847        17.01124        -0.49222
C          3.60663        19.07376         0.38339
C          2.33396        18.41549        -0.08671
C          3.60802        20.55521         0.10087
C          2.37362        21.24814         0.10270
C          3.56653        23.37292        -0.16148
C          2.36032        22.68013        -0.03169
C          3.57566        24.85187        -0.19207
C          2.30639        25.65491        -0.08971
C          3.65688        27.67620         0.72510
C          2.35333        27.03835         0.45555
C          3.66535        29.19564         0.75204
C          2.39325        29.92472         0.70195
C          3.68854        32.05262         0.63840
C          2.43114        31.34775         0.73024
C          3.69706        33.46619         0.65220
C          2.48033        34.19617         0.86585
C          3.72452        36.33527         0.73157
C          2.51190        35.62715         0.94659
C          3.68364        37.83034         0.52314
C          2.52831        38.48061         1.23194
C          6.16372         3.37787        -0.52119
C          4.95131         4.04775        -0.45195
C          6.14570         6.20108        -0.33121
C          4.93122         5.46131        -0.34049
C          6.12873         7.66784        -0.28983
C          4.94527         8.35711        -0.37019
C          6.11215        10.50549         0.08422
C          4.95224         9.84209        -0.62471
C          5.99874        11.93350         0.32331
C          4.79366        12.62587        -0.15336
C          6.13421        14.80592        -0.26342
C          4.85875        14.04245        -0.50074
C          6.09988        16.28064        -0.23038
C          4.87610        16.97704        -0.18815
C          6.09768        19.09929        -0.08754
C          4.87337        18.37358        -0.04972
C          6.09141        20.54933        -0.07059
C          4.83528        21.24923        -0.04752
C          6.06113        23.36741        -0.34355
C          4.82512        22.67484        -0.17119
C          6.02270        24.83664        -0.49174
C          4.84876        25.53850        -0.04148
C          6.05928        27.76062        -0.17782
C          4.98721        26.91268         0.55524
C          6.15419        29.13790         0.46407
C          4.91911        29.92801         0.52899
C          6.18865        32.04395         0.39964
C          4.93480        31.32044         0.53602
C          6.13915        33.47177         0.35793
C          4.93936        34.18156         0.49887
C          6.13078        36.37854         0.34969
C          4.93514        35.63896         0.52747
C          6.18155        37.80405         0.51628
C          5.01004        38.50228         0.73774
C          8.62499         3.39633        -0.50290
C          7.40588         4.09042        -0.51157
C          8.60151         6.32818        -0.80104
C          7.36768         5.52355        -0.46393
C          8.57987         7.69533        -0.12773
C          7.39237         8.38530        -0.08288
C          8.53923        10.52891         0.49158
C          7.34949         9.82256         0.23167
C          8.57951        11.98344         0.91590
C          7.28844        12.75009         0.65370
C          8.56789        14.83653         0.13809
C          7.33895        14.14374         0.25712
C          8.56133        16.22551        -0.12876
C          7.33524        16.97162        -0.17729
C          8.58262        19.12799        -0.04059
C          7.32983        18.40254        -0.15812
C          8.57162        20.57532        -0.00680
C          7.30943        21.26826        -0.13208
C          8.56491        23.42467        -0.38204
C          7.30113        22.69464        -0.29006
C          8.58015        24.81054        -0.49634
C          7.35225        25.61237        -0.56041
C          8.62725        27.71381        -0.23263
C          7.39096        27.02704        -0.21642
C          8.65721        29.16506        -0.11529
C          7.46561        29.89113         0.35062
C          8.64731        32.02842        -0.07085
C          7.42250        31.35901         0.25328
C          8.69792        33.50579        -0.00283
C          7.40859        34.22084         0.25737
C          8.64348        36.41834        -0.21352
C          7.34644        35.67370        -0.06501
C          8.65601        37.83737         0.20448
C          7.48627        38.46366         0.51237
C         11.18040         3.43391        -0.45560
C          9.87902         4.10304        -0.09122
C         11.16232         6.27921        -0.28445
C          9.90295         5.55663        -0.58267
C         11.12564         7.72137         0.02606
C          9.82815         8.32030         0.33714
C         11.09349        10.56388         0.56133
C          9.81114         9.82510         0.67438
C         11.08751        11.98209         0.50905
C          9.83222        12.71236         0.47307
C         11.07272        14.83510         0.36205
C          9.80865        14.07766         0.28142
C         11.05163        16.30830         0.16647
C          9.83211        16.96482        -0.43798
C         11.03788        19.07696         0.30232
C          9.78274        18.42453        -0.05695
C         11.03332        20.61500         0.37380
C          9.77722        21.30152         0.04628
C         11.06435        23.38940        -0.13785
C          9.82317        22.71290        -0.20165
C         11.16009        24.81412        -0.47792
C          9.82672        25.56316        -0.65785
C         11.12364        27.69572        -0.61231
C          9.82728        27.01099        -0.48544
C         11.10585        29.19124        -0.58978
C          9.81372        29.87932        -0.35618
C         11.06107        32.00132        -0.74569
C          9.81895        31.31019        -0.30949
C         11.05084        33.49635        -0.92350
C          9.87083        34.26859        -0.49487
C         11.13809        36.39183        -0.40673
C          9.91644        35.65465        -0.34317
C         11.21316        37.74764         0.00806
C          9.97535        38.58330         0.25964
C         13.63400         3.42407        -0.24195
C         12.37345         4.07544        -0.19818
C         13.60352         6.27929         0.15262
C         12.31776         5.49690         0.36756
C         13.56215         7.66874         0.17125
C         12.31196         8.40208         0.27918
C         13.55859        10.55707         0.47628
C         12.31309         9.84248         0.46923
C         13.56586        11.98689         0.48146
C         12.33249        12.69004         0.44117
C         13.56208        14.80121         0.16435
C         12.35823        14.11278         0.32631
C         13.56289        16.24133        -0.18998
C         12.33067        17.02565        -0.03648
C         13.57113        19.14969         0.08406
C         12.33470        18.39337         0.05431
C         13.56004        20.56459         0.26116
C         12.31902        21.31659         0.26622
C         13.53942        23.46400         0.27961
C         12.30094        22.71204         0.15026
C         13.56694        24.84494         0.20070
C         12.37606        25.59161        -0.13022
C         13.56519        27.77178        -0.00247
C         12.37183        26.98511        -0.22073
C         13.58667        29.15454        -0.12967
C         12.29975        29.92724        -0.02576
C         13.57152        32.02341        -0.55485
C         12.36278        31.34035        -0.52916
C         13.61524        33.45017        -0.80383
C         12.37406        34.18847        -1.03658
C         13.67109        36.32897        -0.50007
C         12.38238        35.71430        -0.80351
C         13.69091        37.68898        -0.06257
C         12.45041        38.37110         0.15720
C         16.08337         3.42890         0.03700
C         14.84823         4.11593        -0.01115
C         16.07156         6.23484         0.25174
C         14.84281         5.55836         0.11971
C         16.12533         7.69786         0.15893
C         14.80639         8.44507         0.07679
C         16.03146        10.55022         0.58802
C         14.79657         9.87256         0.41085
C         16.03830        11.99434         0.60496
C         14.80723        12.70098         0.46636
C         16.05159        14.84008         0.32413
C         14.81267        14.11990         0.29951
C         16.09729        16.26667         0.16308
C         14.86175        17.00459        -0.19129
C         16.02984        19.17506         0.12042
C         14.81752        18.47401         0.01004
C         16.02615        20.58176         0.31529
C         14.78715        21.25539         0.37242
C         16.03506        23.42642         0.91579
C         14.69683        22.67291         0.87163
C         16.04910        24.92414         0.83749
C         14.88174        25.60037         0.13703
C         16.08110        27.79086         0.20344
C         14.78985        27.07493         0.55551
C         16.07465        29.17924        -0.06598
C         14.81987        29.91366        -0.14201
C         16.09600        32.07883        -0.19691
C         14.81100        31.29575        -0.33230
C         16.08802        33.46806        -0.80006
C         14.83710        34.16077        -0.81496
C         16.11925        36.27186        -0.67462
C         14.85600        35.60090        -0.71595
C         16.13815        37.64678        -0.24010
C         14.93529        38.31299         0.10959
C         18.55978         3.43448         0.27510
C         17.30224         4.10767         0.24787
C         18.50662         6.25883         0.62269
C         17.29171         5.53603         0.38509
C         18.48896         7.66894         0.88112
C         17.31432         8.41204         0.66417
C         18.44001        10.57477         1.21391
C         17.23877         9.82256         0.80303
C         18.49400        12.01896         0.91042
C         17.26416        12.71207         0.67046
C         18.50749        14.85275         0.63065
C         17.27140        14.13773         0.54151
C         18.51930        16.27758         0.50259
C         17.28877        16.97027         0.25787
C         18.54519        19.16654         0.28920
C         17.31511        18.42670        -0.16123
C         18.53382        20.58032         0.28363
C         17.28094        21.32734         0.37219
C         18.50919        23.47466         0.38012
C         17.30196        22.70343         0.61256
C         18.54045        24.86112         0.35991
C         17.37344        25.69854         0.83389
C         18.51355        27.73191        -0.07588
C         17.28643        27.07208         0.20270
C         18.52119        29.12362        -0.28761
C         17.31127        29.86491        -0.27249
C         18.49528        31.93405        -0.96395
C         17.32803        31.28115        -0.49138
C         18.45677        33.30747        -1.40267
C         17.28041        34.13796        -1.14087
C         18.48219        36.41848        -1.26019
C         17.30173        35.60009        -1.09306
C         18.53063        37.73960        -0.69064
C         17.37124        38.31580        -0.14215
C         19.73953         4.14662         0.40519
C         20.97373         6.30903         0.63841
C         19.73939         5.55109         0.58671
C         20.98460         7.61973         0.96966
C         19.73568         8.27708         1.50887
C         20.96383        10.59281         1.27561
C         19.73242         9.81855         1.49000
C         20.93727        11.94096         1.10213
C         19.71338        12.70123         0.97409
C         20.93034        14.88348         0.89311
C         19.73314        14.14345         0.82796
C         20.93441        16.26888         0.77248
C         19.74647        16.99560         0.58372
C         20.93680        19.19690         0.68741
C         19.74824        18.46051         0.50906
C         20.95074        20.57813         0.51256
C         19.76202        21.28245         0.29920
C         21.00427        23.48527         0.07547
C         19.72588        22.72560        -0.14104
C         21.00685        24.83129         0.09425
C         19.76501        25.58765         0.08778
C         20.96719        27.69114        -0.45494
C         19.75580        26.97088        -0.11125
C         21.00214        29.03280        -0.60302
C         19.81501        29.89740        -0.28950
C         20.76546        31.66806        -1.84158
C         19.70698        31.17214        -1.09642
C         20.65641        32.92264        -2.46001
C         19.54691        33.72728        -2.20324
C         20.73828        36.84552        -2.17618
C         19.60122        36.05703        -2.05881
C         20.81947        38.06861        -1.47593
C         19.73030        38.51290        -0.75918
O          5.82981        14.22388        -1.63072
O         15.92938        24.28730         2.13347
O         10.97067        19.77809         1.58255
O         14.27376        16.53937        -1.45738
O         10.84678        32.60390        -2.08167
O         11.28478        28.52593        -1.85822
O         12.07744         5.38243         1.74233
O          0.75759        24.15506        -1.27367
O          6.31095        12.42924         1.69360
O         15.61473         8.18660        -1.13316
O         10.87177         5.82584        -1.65736
O          3.44507         6.92610         0.97723
O         12.38014        35.12147        -2.15397
O          9.77329         8.80893         1.72442
O          6.55178        25.35175        -1.79643
O          1.78848        16.75997        -1.80140
O         18.90659        10.31207         2.60207
O         10.94127        15.79832         1.52341
O          7.79467        36.11044        -1.39764
O         19.52571        34.93994        -2.89680
O          3.68757        28.37208         2.01591
O          2.93146        25.52330        -1.41311
O         10.64098        25.12381        -1.81030
O          6.99322        29.29053         1.63702
O          8.32638        33.96167         1.37819
O         19.68555         7.88694         2.91667
H         19.14688         8.57621         3.37305
O          3.60183        18.90345         1.86639
H          2.87756        19.46469         2.21919
O          3.40040        38.01378        -0.92996
H          4.14301        37.59816        -1.41977
O         19.54464        22.65086        -1.60188
H         19.50735        23.57137        -1.93868
O         14.26929        22.46332         2.25655
H         14.50047        23.28458         2.75146
O         15.27319        25.56847        -1.26556
H         14.54442        25.95645        -1.79622
O          5.62895        27.99006        -1.53744
H          5.74731        27.13758        -2.02678
O          5.49788        26.63024         1.88520
H          5.16304        27.35239         2.47348
O          2.21410        12.69362         1.46078
H          1.41557        13.21569         1.68947
O         12.02352        30.01874         1.41998
H         12.74731        30.53900         1.83002
O          3.41246        15.92442         1.35237
H          3.53302        16.77863         1.83196
O         10.04381        16.88390        -1.88916
H          9.24155        17.23497        -2.33052
O          8.49469         6.59888        -2.23262
H          9.41168         6.53175        -2.59484
O         17.41880        18.39095        -1.63045
H         16.64079        17.89746        -1.97025
O          9.78518         4.14235         1.35964
H         10.63452         4.58115         1.71760
O          8.73822        11.91652         2.36749
H          7.83398        11.80124         2.74326
O          5.18314        10.01397        -2.07484
H          6.00612         9.52994        -2.30276
O         10.13704        39.24506         1.51865
H          9.31428        39.73244         1.72607
O         17.70705        26.02826         2.22036
H         17.25756        25.35241         2.78281
O          3.49668         2.90705         1.06976
H          3.43890         3.73384         1.59276
O         16.18268        32.36458         1.27334
H         17.09154        32.69320         1.44847
O         14.63099        27.07463         1.99883
H         14.66252        28.00287         2.31067
O          1.38200         7.86099        -2.75136
H          1.36418         8.82740        -2.92089
O         20.00372        30.35018         1.10569
H         19.99762        29.54853         1.67165
O          3.53739        15.05760        -2.21909
H          4.45266        14.92494        -2.56473
H          1.31681         2.23489        -1.21501
H         -0.73221         3.47795        -1.92312
H         -0.74603         5.95679        -1.92968
H         -0.97063         7.75663        -0.90619
H         -1.05092        10.13751        -0.44606
H         -1.11824        12.11575        -0.53587
H         -1.09443        14.53716        -0.41073
H         -1.13281        16.50280        -0.27710
H         -1.06217        18.89210         0.04794
H         -0.98490        20.70292         0.74244
H         -1.07090        23.13594         0.57640
H         -1.14299        25.18197         0.45823
H         -0.99811        27.54114         0.95862
H         -0.98415        29.44028         1.01019
H         -0.95081        31.86098         1.09771
H         -0.89098        33.75673         1.42169
H         -0.79258        36.19648         1.71074
H          0.53714        38.27703         1.96354
H          3.73588         2.30692        -0.88716
H          2.57364        39.56381         1.41897
H          6.18171         2.27831        -0.54010
H          5.03334        39.59579         0.86010
H          8.61362         2.29551        -0.52692
H          7.49973        39.53137         0.78793
H         11.17489         2.41623        -0.87995
H          9.94168        39.37406        -0.55687
H         13.66384         2.32777        -0.35171
H         12.47994        39.42010         0.48428
H         16.09344         2.33653        -0.09612
H         14.98321        39.35442         0.45986
H         18.58421         2.34157         0.15801
H         17.41068        39.33595         0.26651
H         20.70241         3.61563         0.38218
H         21.90965         5.79641         0.36857
H         21.94215         8.15758         1.00852
H         21.93246        10.07454         1.25652
H         21.89655        12.46406         0.98814
H         21.88997        14.37341         1.04819
H         21.89960        16.78868         0.82995
H         21.88677        18.68620         0.89115
H         21.91612        21.09948         0.55135
H         21.96178        22.94709         0.07633
H         21.96286        25.36777         0.16719
H         21.89127        27.12111        -0.62487
H         21.96356        29.51617        -0.82767
H         21.68616        31.08641        -1.97813
H         21.45395        33.29715        -3.11373
H         21.55596        36.52235        -2.83281
H         21.72872        38.68066        -1.54817
H         19.74717        39.49763        -0.27150
