         276
 CSIRO Nanostructure Databank - Neutral Graphene Oxide Data Set
C        -11.09548         0.65322         0.16787
C         -9.92278         1.46750         0.43789
C         -8.65701         0.72935         0.71243
C         -7.43748         1.48187         0.21286
C         -6.15682         0.72416         0.55537
C         -4.92248         1.48347         0.07555
C         -3.63453         0.69806         0.24771
C         -2.33304         1.47907         0.02964
C         -1.16793         0.77460        -0.56558
C         -0.01573         1.51847        -1.14985
C          1.26036         0.73652        -1.11229
C          2.44327         1.39796        -1.19450
C          3.70304         0.56652        -1.40642
C          5.01858         1.34650        -1.22750
C          6.23577         0.61027        -0.70556
C          7.50415         1.36488        -0.45592
C          8.82404         0.65933        -0.38604
C          9.92362         1.38868         0.30168
C         11.08398         0.63299         0.69607
C         -9.89682         2.82928         0.54085
C         -8.67374         3.53522         1.12937
C         -7.37470         2.93012         0.64339
C         -6.24399         3.64826         0.42798
C         -4.95586         2.96770         0.07870
C         -3.67065         3.70846         0.33299
C         -2.27597         3.01191         0.22387
C         -1.35199         3.72254        -0.78132
C         -0.10309         3.00293        -1.30548
C          1.20117         3.75437        -1.41302
C          2.52198         2.89825        -1.50111
C          3.67044         3.46906        -0.64191
C          5.01209         2.84682        -1.06354
C          6.27298         3.59713        -0.65816
C          7.56234         2.86524        -0.51016
C          8.68902         3.52813         0.20450
C          9.84134         2.74320         0.54228
C         -8.66901         5.03859         1.06794
C         -7.53341         5.79671         0.75347
C         -6.34290         5.11903         0.10006
C         -5.05252         5.90142         0.20210
C         -3.73406         5.20399         0.32055
C         -2.43191         6.00298         0.13449
C         -1.36193         5.21094        -0.64153
C         -0.11889         5.97485        -0.93246
C          1.18340         5.22891        -1.09655
C          2.37968         5.67441        -0.19860
C          3.67980         5.00107        -0.64682
C          4.96080         5.71967        -0.38862
C          6.13033         4.89265         0.11895
C          7.43591         5.66468         0.23876
C          8.64101         4.88821         0.41936
C         -7.51879         7.18528         0.88651
C         -6.35250         8.05207         0.49471
C         -5.10268         7.25404         0.17270
C         -3.86897         8.04120        -0.05057
C         -2.70231         7.29437        -0.67744
C         -1.43513         8.18241        -0.84223
C         -0.22789         7.31943        -1.18213
C          1.42263         7.78906         0.77840
C          2.48216         7.15665         0.05115
C          3.69356         7.95354        -0.35594
C          4.90776         7.13636         0.08845
C          6.19511         7.81700         0.43483
C          7.43917         7.02731         0.36443
C         -5.98146         9.02278         1.62492
C         -4.75442         9.55858         1.75813
C         -3.65695         9.24705         0.80626
C         -2.26245         9.68471         1.01773
C         -1.20432         9.17992         0.32748
C          0.09748         9.86081         0.49069
C          1.31712         9.26718         0.62372
C          2.58355         9.98393         0.60683
C          3.73481         9.34669         0.24547
C          5.03816         9.99328         0.32841
C          6.19785         9.29493         0.38808
C        -11.07256        -0.70894         0.22158
C         -9.88422        -1.50740         0.50836
C         -8.64032        -0.76515         0.84632
C         -7.30411        -1.54194         0.82200
C         -6.26600        -0.73860         0.01671
C         -4.90209        -1.46544        -0.02005
C         -3.85909        -0.54788        -0.71031
C         -2.61433        -1.25888        -1.22507
C         -1.28867        -0.58013        -1.18474
C         -0.02791        -1.33933        -1.34847
C          1.18607        -0.73403        -1.19671
C          2.47597        -1.50230        -1.47534
C          3.66152        -0.82493        -0.79196
C          4.94059        -1.57597        -0.65989
C          6.26963        -0.89166        -0.87692
C          7.56734        -1.64176        -0.70617
C          8.83726        -0.85048        -0.42373
C          9.87646        -1.48597         0.40970
C         11.05693        -0.72965         0.75757
C         -9.86803        -2.86299         0.37289
C         -8.62077        -3.70105         0.58754
C         -7.39282        -2.91771         0.19779
C         -6.25464        -3.55431        -0.33691
C         -5.03176        -2.88420        -0.51277
C         -3.71612        -3.58202        -0.82532
C         -2.83514        -2.68974        -1.73210
C         -1.49989        -3.37540        -2.03269
C         -0.16608        -2.71013        -1.87291
C          0.97918        -3.69362        -1.77485
C          2.37800        -3.09507        -1.43943
C          3.57791        -3.78080        -0.76866
C          4.90308        -3.05915        -0.84320
C          6.20723        -3.81667        -0.65228
C          7.63953        -3.18651        -0.49490
C          8.50605        -3.55395         0.73174
C          9.63493        -2.69805         1.00107
C         -8.67542        -5.04726        -0.14520
C         -7.37533        -5.82056        -0.02154
C         -6.07152        -5.05589        -0.10662
C         -5.04216        -5.78520        -0.97571
C         -3.83014        -4.99964        -1.49970
C         -2.43231        -5.68700        -1.28243
C         -1.35742        -4.90343        -2.09321
C          0.34015        -5.79955        -0.43181
C          0.26610        -5.11973        -1.77335
C          2.81249        -6.20901        -0.82851
C          3.61480        -5.06638        -0.27373
C          4.84275        -5.68556         0.28004
C          6.03533        -5.19569        -0.15605
C          7.61854        -5.82318         1.33208
C          8.48098        -4.68600         1.51976
C         -7.37314        -7.16264         0.05985
C         -6.16842        -8.04503        -0.18837
C         -4.96132        -7.25390        -0.74443
C         -3.62790        -7.96193        -0.77887
C         -2.33547        -7.15559        -0.87234
C         -1.04762        -7.92957        -0.64493
C          0.10894        -7.26909        -0.33564
C          1.19748        -7.89524         0.51213
C          2.57044        -7.42828         0.02655
C          3.68103        -7.90770         0.87131
C          4.79205        -6.93634         1.12961
C          5.89714        -7.47471         2.00500
C          7.15687        -6.71076         2.24797
C         -5.80475        -8.97008         0.94102
C         -4.64737        -9.64422         0.88393
C         -3.56550        -9.28909        -0.06556
C         -2.24900        -9.91643         0.16630
C         -1.09195        -9.34700        -0.23872
C          0.20079       -10.15008        -0.13318
C          1.26054        -9.39547         0.62951
C          2.31069        -9.92680         1.29305
C          3.38456        -9.02134         1.89399
C          4.72219        -9.67712         2.19702
C          5.84199        -8.93731         2.30655
O          3.62854         0.13401        -2.83176
O          9.28491        -0.06498        -1.56395
O          7.24122         3.58521        -1.73997
O          2.79366        -6.30872        -2.04246
O         -4.10539         9.36802        -0.61306
O          2.82014        -1.12616        -2.87436
O          5.67544        -3.55475        -1.98759
O         -3.77261        -9.19522        -1.53442
O          6.60997         0.97494         0.66421
O          4.45852         5.54714        -1.75196
O         -0.35406         2.11798        -2.44294
O          3.51217        -8.43886        -0.47832
O          7.01816        -1.34237        -2.02964
O          0.55890         7.16226         1.45058
O         -2.28400        -6.02996         0.10016
O          7.17889        -5.96223         0.00010
O          0.63973        -5.11344         0.55319
O          4.15780        -1.12753         0.51636
O          4.78489        -6.66558         2.58740
O         -0.83373        -2.79771        -3.19563
O         -5.00750         2.21545        -1.18155
O         -8.67576         0.10806         2.03944
O          1.35093         4.78981        -2.46325
O          5.25208         7.26872         1.49132
O         -1.28015         0.84114         0.87348
O         -1.98575         4.52550        -1.80006
O         -5.40554        -4.92213         1.15349
O         -3.74733         4.44333         1.59301
O          5.21380         2.23324        -2.35656
O          2.00488        -3.55470        -2.78210
O         -5.46039        -6.70373        -2.03712
O         -2.09307        -0.50215        -2.39113
O         -6.89946        -1.75214         2.19197
H         -7.24954        -0.97717         2.70070
O          8.38630        -3.68789        -1.61262
H          7.90741        -3.40768        -2.42502
O          0.75825         8.03234        -1.78717
H          1.49485         7.45506        -2.08486
O         -6.76609         8.83640        -0.65104
H         -5.96680         9.35624        -0.91971
O         -3.11824         6.88833        -1.98580
H         -2.98835         7.66766        -2.57392
O          5.73605         4.50819         1.47244
H          5.58698         5.35250         1.96774
O         -6.82693        -0.78105        -1.30065
H         -6.25191        -0.24473        -1.89996
O          0.97899        -7.37473         1.83670
H          0.82122        -6.39985         1.76942
O          0.72061        -5.91831        -2.83522
H          1.32983        -5.38483        -3.39356
O         -4.44738        -1.82164         1.29845
H         -5.23974        -2.07420         1.84997
O         -1.68356         9.01821        -1.99643
H         -0.81137         9.32749        -2.32575
O         -8.72671         3.23740         2.57047
H         -8.69501         2.25946         2.67520
O         -6.11363         0.72176         1.99515
H         -5.21500         0.42206         2.27745
O         -1.59822         3.25208         1.47350
H         -2.08428         2.79380         2.19098
O         -3.03281        -3.71391         0.42462
H         -3.65744        -4.22381         1.01793
O         -8.46977        -3.97111         2.00592
H         -7.55141        -4.29959         2.14578
O         -3.57385         0.33412         1.63637
H         -2.66205         0.00559         1.82342
O         -1.95762         6.39649         1.41867
H         -1.94151         5.59578         1.98938
O          2.89226        -8.50473         3.14188
H          3.46468        -7.73920         3.38653
O          0.69507       -10.43331        -1.45298
H          1.11013        -9.62395        -1.81694
O         -1.56078        -5.33061        -3.42563
H         -1.16563        -4.65520        -4.02059
O         -6.64861         5.10626        -1.33629
H         -6.58838         6.02816        -1.66838
O         -8.90056        -4.76654        -1.53312
H         -8.80487        -5.59949        -2.03899
O          3.74135         8.11874        -1.80041
H          3.99210         7.24351        -2.19259
O         -7.64139         1.58282        -1.21431
H         -6.85394         2.04308        -1.59683
O         -6.58567        -8.93379        -1.26166
H         -6.42465        -8.45992        -2.10745
O         -4.47104        -0.04314        -1.91585
H         -4.22472        -0.65772        -2.65059
O          2.07141         5.06322         1.08012
H          1.35968         5.63051         1.49411
O         -3.54708        -2.47372        -2.96760
H         -2.86885        -2.23054        -3.63861
O         -4.05107        -4.82184        -2.89333
H         -4.46560        -5.65070        -3.22873
O          2.91890         2.96984        -2.87223
H          2.14768         2.75494        -3.43704
O          3.45133         2.98748         0.69559
H          4.09373         3.43729         1.29813
H         11.91545        -1.27823         1.17127
H         11.96991         1.18303         1.04489
H         10.68520         3.24919         1.03579
H          9.53067         5.40293         0.81350
H          8.39640         7.55940         0.47752
H          7.16384         9.81630         0.45288
H          5.06218        11.09237         0.38694
H          2.61010        11.03693         0.93079
H          0.06132        10.96464         0.45869
H         -2.08530        10.45835         1.78153
H         -4.54513        10.26360         2.57795
H         -6.77917         9.31185         2.32655
H         -8.41590         7.69480         1.27456
H         -9.55574         5.56051         1.46452
H        -10.81772         3.41344         0.38710
H        -12.04092         1.16771        -0.06103
H        -12.00128        -1.26336         0.01655
H        -10.78839        -3.38453         0.06622
H         -9.52522        -5.66761         0.25980
H         -8.33530        -7.69817         0.12947
H         -6.55402        -9.19856         1.71241
H         -4.39547       -10.38932         1.65410
H         -2.24174       -10.93786         0.57902
H         -0.02046       -11.13341         0.35160
H          2.41262       -11.01858         1.39921
H          4.75609       -10.75386         2.42536
H          6.79190        -9.41700         2.58845
H          7.51515        -6.66222         3.28713
H          9.18451        -4.72271         2.36705
H         10.37754        -3.07612         1.72054
