         278
 CSIRO Nanostructure Databank - Neutral Graphene Oxide Data Set
C        -11.06880         0.67794         0.70523
C         -9.79649         1.43585         0.65303
C         -8.62307         0.75678         0.01838
C         -7.52029         1.60221        -0.51086
C         -6.33411         0.85572        -1.01025
C         -5.03068         1.58433        -1.26309
C         -3.70927         0.90095        -1.14366
C         -2.50250         1.57059        -1.22116
C         -1.23366         0.83038        -1.19042
C          0.05333         1.59410        -1.27497
C          1.31739         0.83946        -0.88546
C          2.65632         1.52015        -0.91395
C          4.00689         0.72570        -0.76351
C          4.91404         1.24404         0.35816
C          6.21809         0.52281         0.47442
C          7.46673         1.30248         0.57671
C          8.78003         0.57457         0.36101
C          9.85029         1.20309         1.26907
C         11.15368         0.46500         1.10610
C         -9.73815         2.89955         0.76729
C         -8.63464         3.61597         0.36885
C         -7.53198         2.96620        -0.35377
C         -6.40141         3.77431        -0.89262
C         -5.09405         3.08711        -1.25420
C         -3.78112         3.83052        -1.09397
C         -2.47906         3.07799        -1.15274
C         -1.25429         3.72736        -0.55670
C          0.03423         3.06220        -0.90528
C          1.30467         3.73457        -0.45295
C          2.60433         2.96558        -0.53579
C          3.60322         3.41169         0.51182
C          4.94532         2.72760         0.57631
C          6.23720         3.46255         0.68237
C          7.48980         2.67074         0.62121
C          8.74434         3.42044         0.80251
C          9.90706         2.70033         1.05512
C         -8.46955         4.99728         0.82905
C         -7.37958         5.71838         0.48129
C         -6.43198         5.28742        -0.62870
C         -5.06353         5.87492        -0.13181
C         -3.85389         4.92892        -0.02826
C         -2.56085         5.71491         0.30082
C         -1.29814         4.90616         0.12403
C         -0.09583         5.61092         0.74026
C          1.23399         4.99123         0.36018
C          2.41113         5.54892         1.17698
C          3.67491         4.92644         0.60544
C          4.96592         5.66046         0.52704
C          6.27549         4.90092         0.19942
C          7.53338         5.62609         0.65393
C          8.70995         4.84771         0.85403
C         -6.70420         6.86915         1.17535
C         -6.20523         8.02735         0.18515
C         -4.96078         7.36167        -0.44172
C         -3.59773         7.94613        -0.37904
C         -2.43006         6.97353        -0.63697
C         -1.02071         7.69531        -0.59178
C          0.02697         7.09267         0.35410
C          1.21424         7.77009         0.54566
C          2.42336         7.08893         1.12743
C          3.74082         7.82284         1.21460
C          5.08044         7.04799         1.17345
C          6.21653         7.73211         0.36669
C          7.50487         7.00778         0.70355
C         -5.86364         9.37000         0.79475
C         -4.64329         9.93241         0.75657
C         -3.36984         9.15410         0.50691
C         -2.14146         9.89965         0.05033
C         -1.06780         9.20003        -0.36242
C          0.25293         9.83197        -0.70263
C          1.40442         9.13737         0.03420
C          2.59550         9.78673         0.12177
C          3.74836         9.35104         1.00118
C          5.09097         9.92599         0.61012
C          6.22796         9.22922         0.49505
C        -11.15129        -0.61021         0.33533
C        -10.08138        -1.42143        -0.38146
C         -8.77311        -0.60238        -0.66701
C         -7.49501        -1.35817        -0.42776
C         -6.26989        -0.55258        -0.50452
C         -4.95373        -1.26287        -0.52233
C         -3.75267        -0.58470        -1.12776
C         -2.44277        -1.32768        -1.13462
C         -1.20174        -0.54307        -1.08487
C          0.06340        -1.34235        -1.11089
C          1.28005        -0.62844        -0.59925
C          2.54610        -1.39359        -0.15451
C          3.87703        -0.84053        -0.81217
C          5.08274        -1.54903        -0.18119
C          6.27068        -0.90787         0.06129
C          7.52633        -1.61629         0.25465
C          8.68921        -0.93050         0.50663
C          9.92762        -1.64873         0.77803
C         11.15801        -0.87087         0.91893
C         -9.82959        -2.75613         0.30587
C         -8.64415        -3.41122         0.28544
C         -7.44169        -2.70774        -0.16991
C         -6.18327        -3.42210        -0.28959
C         -5.01143        -2.73729        -0.49968
C         -3.71062        -3.41705        -0.39067
C         -2.40411        -2.73354        -0.61732
C         -1.18839        -3.57713        -0.85125
C          0.05427        -2.84949        -1.20041
C          1.34063        -3.62518        -0.99573
C          2.53558        -2.88273        -0.47520
C          3.65252        -3.59326         0.24064
C          5.02356        -3.05870        -0.20932
C          6.15926        -3.64940         0.62599
C          7.52123        -3.13910         0.14319
C          8.67101        -3.77108         0.91273
C          9.90414        -3.00865         0.98221
C         -8.49611        -4.78089         0.93781
C         -7.20509        -5.53157         0.63202
C         -6.31535        -4.93785        -0.44285
C         -4.98337        -5.66210        -0.55529
C         -3.69643        -4.89319        -0.50008
C         -2.42903        -5.52040         0.05400
C         -1.17777        -4.90589        -0.54750
C         -0.01221        -5.81945        -0.81536
C          1.32927        -5.13389        -0.96873
C          2.20324        -5.81446         0.61056
C          3.50273        -4.98356         0.77307
C          4.75957        -5.79824         1.13016
C          6.05235        -4.98986         1.25398
C          7.30341        -5.81366         1.58470
C          8.57663        -5.01228         1.45650
C         -6.93161        -6.74004         1.19754
C         -5.76123        -7.54944         0.84138
C         -4.89861        -7.07278        -0.11107
C         -3.63679        -7.79234        -0.35100
C         -2.40207        -6.99206        -0.17292
C         -1.23964        -7.77471         0.40036
C         -0.01032        -7.30187        -0.43838
C          1.34948        -7.96017        -0.35443
C          2.41636        -7.22342         0.06304
C          3.78765        -7.88641         0.03413
C          4.96978        -6.89508         0.07769
C          6.27555        -7.63394         0.14400
C          7.35000        -7.09429         0.76928
C         -5.41110        -8.81280         1.50133
C         -4.29363        -9.53738         1.23255
C         -3.35991        -9.22331         0.07568
C         -1.79880        -9.27973         0.33853
C         -0.86826        -9.80353        -0.71928
C          0.38621       -10.24815        -0.32730
C          1.53901        -9.39599        -0.72354
C          2.76396        -9.82376        -1.11334
C          3.90126        -8.83245        -1.17826
C          5.27149        -9.45970        -1.19900
C          6.33279        -8.90727        -0.57636
O          2.87874         2.58013        -1.88977
O          4.49091        -6.42289         2.40962
H          4.05107        -5.73790         2.96294
O         -2.81322        -7.42857        -1.49837
O         -4.23728        -5.34612        -1.77409
O         -2.93161        -2.86344         0.75334
O          5.49601         3.14520         1.89805
O          0.96600         0.32779         0.47037
O          2.95015         7.55855         2.41979
O          1.46069         5.05695        -1.06679
O          2.10248        -5.64251        -2.01814
H          2.53734        -4.85444        -2.44199
O         -5.42563        -0.63551         0.71257
O         -0.29562        -6.86792        -1.79692
O         -4.42450         8.03976        -1.57712
O          0.11062         2.59568        -2.29962
O          3.93076        -1.24021        -2.14889
O         -3.25276        -1.20421        -2.35183
O         -0.36019         7.44172        -1.80543
O          2.93722         2.88584         1.72472
H          3.64771         2.58929         2.34177
O          7.22297        -6.24872         2.96536
H          6.29689        -6.54582         3.12554
O         -6.85043         5.93948        -1.78789
O          0.13845        -2.03860        -2.40625
O         -6.00830         3.54528        -2.27551
O          5.19661         0.56015         1.59624
O         -8.70504        -0.30808        -2.12416
O         -7.02244        -5.14603        -1.70002
O          3.92250        -8.72227         1.19387
H          3.85205        -8.14623         1.99115
O          7.59239        -3.58731        -1.20003
O          4.78462         1.05475        -1.92385
H          4.59033         0.31526        -2.56829
O          3.76470        -8.01895        -2.40725
H          2.80725        -7.82149        -2.53601
O         -0.28306         5.51957         2.18073
H          0.60058         5.64200         2.62507
O          3.49485         9.99650         2.28256
H          2.90189         9.39056         2.78693
O          3.38645        -3.82233         1.64461
O         -8.73331         0.75579         1.46648
O          6.37894        -5.90402        -1.72539
H          6.64898        -4.89468        -1.54282
O         -2.98273         3.87749        -2.28350
O         -5.85108         1.02881        -2.36235
O         -1.08942        -9.47006        -1.98800
H         -1.93714        -8.96659        -2.07805
O          2.41084        -3.17013        -1.88800
O          1.31212        -5.69744         1.55385
O        -10.68080        -1.78970        -1.64334
H        -10.74091        -0.98127        -2.19842
O          5.94201        -3.75822         2.04170
O         -9.63003        -5.63433         0.59866
H         -6.36644        -5.04062        -2.42521
O          4.06313         5.61216        -0.61362
O          5.53423         6.89556         2.52533
H          4.73636         6.89108         3.10263
O          9.20713         0.84171        -1.00170
H          8.61540         0.35205        -1.61126
O         -2.59464         6.45444        -1.94409
H         -1.74423         6.65332        -2.42954
O         -3.63606       -10.15390        -0.98977
H         -4.60431       -10.18483        -1.13459
O         -0.95419        -7.46748         1.75604
H         -0.21823        -6.79913         1.80577
O         -7.21091         8.28196        -0.77198
H         -7.21818         7.50401        -1.41624
O         -3.03584         8.61805         1.83564
H         -2.70361         9.36754         2.37360
O         -9.77115        -5.61892        -0.85018
H         -8.84089        -5.72174        -1.18473
O          5.93060         7.48311        -1.04697
H          6.52764         8.04780        -1.58119
O          6.37968         4.77484        -1.23371
H          6.02827         5.60927        -1.62665
O          9.44368         1.04782         2.65938
H          8.52299         1.37869         2.74552
O         -2.42390        -5.32577         1.48054
H         -2.42323        -4.35336         1.65787
O         -9.67720         0.76022        -2.37880
H         -9.20681         1.29495        -3.06605
O          2.67617        -1.28681         1.25901
H          2.23881        -0.45513         1.55426
O          2.26905         5.21362         2.57459
H          2.36177         4.22849         2.64601
O          5.16798        -3.48484        -1.57705
H          4.79615        -2.71326        -2.12286
O          0.21517        11.22501        -0.40713
H          0.92286        11.67636        -0.90771
O         -4.14464         4.11023         1.16343
H         -3.51134         4.44483         1.85500
O         -2.75217         6.09414         1.67581
H         -1.86857         6.22068         2.10754
O         -5.38932         6.18039         1.39276
H         -5.44463         5.28444         1.82813
O          5.01586        -6.08810        -1.28706
H          4.59787        -6.74808        -1.98355
H         12.11247        -1.41835         0.88153
H         12.09807         1.01863         1.21944
H         10.83856         3.24027         1.29119
H          9.65082         5.37619         1.07771
H          8.40941         7.57771         0.97028
H          7.17903         9.75403         0.30811
H          5.13103        11.02651         0.59848
H          2.66789        10.80784        -0.28671
H          0.42400         9.68778        -1.80755
H         -2.07029        10.99125         0.17909
H         -4.52768        10.97030         1.11042
H         -6.72806         9.98983         1.08130
H         -7.11329         7.17493         2.16148
H         -9.18490         5.37542         1.57708
H        -10.58257         3.42399         1.24080
H        -11.95096         1.18846         1.12275
H        -12.12060        -1.12451         0.43168
H        -10.71820        -3.27425         0.69787
H         -8.57523        -4.65510         2.05213
H         -7.62865        -7.15251         1.94342
H         -6.08125        -9.15550         2.30491
H         -4.11810       -10.46984         1.79105
H         -1.58321        -9.77091         1.30921
H          0.45534       -10.51714         0.74414
H          2.95143       -10.87830        -1.35646
H          5.38814       -10.41309        -1.73522
H          7.30817        -9.41513        -0.60179
H          8.29183        -7.66426         0.79023
H          9.45807        -5.45310         1.94856
H         10.81946        -3.52833         1.30672
