         324
 CSIRO Nanostructure Databank - Neutral Graphene Oxide Data Set
C          1.30900         3.53270         0.24646
C          0.12677         4.24733         0.18579
C          1.31159         6.34843        -0.33631
C          0.10955         5.64856         0.08910
C          1.39321         7.82887        -0.31281
C          0.24485         8.55631        -0.61543
C          1.28467        10.58120         0.22194
C          0.20031         9.92961        -0.37966
C          1.12120        11.97283         0.68289
C          0.02047        12.80413         0.19279
C          1.14276        14.85698         0.92852
C         -0.00292        14.14167         0.43059
C          1.07966        16.31506         0.97431
C         -0.13857        17.02787         0.90420
C          1.04551        19.16626         0.83155
C         -0.14957        18.41491         0.87176
C          1.00813        20.58317         0.48611
C         -0.13348        21.35819         0.38472
C          1.03346        23.35802        -0.48248
C         -0.11675        22.71918        -0.04920
C          1.13079        24.77200        -0.83429
C         -0.02649        25.58726        -0.89844
C          1.29944        27.51887        -1.57191
C          0.05540        26.91936        -1.26279
C          1.37395        28.91428        -1.89117
C          3.80130         3.48672        -0.01273
C          2.60830         4.25824         0.43635
C          3.91529         6.40768        -0.32516
C          2.61275         5.59734        -0.28510
C          3.80065         7.77848         0.31391
C          2.57177         8.49197         0.16543
C          3.66312        10.58514         1.00506
C          2.50317         9.89410         0.47517
C          3.66641        11.96784         1.22390
C          2.37888        12.70149         1.18688
C          3.58728        14.86004         1.33730
C          2.34990        14.16956         1.13733
C          3.50725        16.33186         1.45312
C          2.27465        17.05539         1.10060
C          3.56350        19.16424         0.85344
C          2.29003        18.47037         0.97253
C          3.56046        20.65338         0.61200
C          2.27298        21.15239        -0.01286
C          3.55313        23.23317        -0.76009
C          2.26246        22.55887        -0.55952
C          3.60437        24.57703        -1.15207
C          2.38791        25.35706        -1.16522
C          3.76463        27.34520        -1.80115
C          2.48700        26.73030        -1.53630
C          3.80397        28.76087        -1.99308
C          2.58471        29.51725        -2.07722
C          6.26434         3.45945        -0.08117
C          5.03701         4.16087        -0.00554
C          6.25701         6.25315         0.55217
C          5.07647         5.59056         0.16079
C          6.18304         7.67543         0.86403
C          4.96567         8.38614         0.84209
C          6.09611        10.55206         1.89560
C          4.85595         9.78482         1.38013
C          6.08506        12.04682         1.78279
C          4.88307        12.71417         1.50557
C          6.03663        14.96508         1.55663
C          4.80824        14.18368         1.46968
C          6.04456        16.35649         1.38461
C          4.80027        17.11831         1.43600
C          6.04681        19.15259         0.61024
C          4.77725        18.52011         0.97979
C          6.00119        20.46608        -0.02935
C          4.77940        21.13887        -0.13434
C          5.85706        22.90080        -1.44461
C          4.72325        22.42422        -0.74235
C          5.83586        24.22405        -1.95951
C          4.83530        25.14364        -1.64649
C          6.23997        27.26833        -1.87224
C          4.98533        26.58997        -1.83298
C          6.24688        28.70246        -1.84363
C          5.04175        29.41499        -2.00894
C          8.69365         3.42177        -0.11897
C          7.49396         4.12542         0.15003
C          8.75627         6.18283         0.79638
C          7.46815         5.49330         0.60700
C          8.70805         7.64168         1.15331
C          7.34662         8.23891         1.63704
C          8.67106        10.57394         1.64602
C          7.40451         9.78327         1.83346
C          8.70278        12.07640         1.90793
C          7.33295        12.83547         2.04527
C          8.36708        15.16500         2.21294
C          7.26394        14.31349         1.90703
C          8.52816        16.46419         1.72141
C          7.24932        17.23541         1.59970
C          8.54079        19.10923         0.37010
C          7.24351        18.48877         0.75447
C          8.52911        20.56600        -0.05322
C          7.19893        21.01823        -0.59861
C          9.13204        23.20683        -1.80378
C          7.05044        22.12484        -1.42379
C          9.11435        24.64538        -2.08112
C          7.90265        25.27008        -2.25606
C          8.81966        27.43691        -1.35761
C          7.59157        26.61733        -1.71961
C          8.67173        28.91420        -1.28651
C          7.42970        29.46971        -1.57687
C         11.15269         3.30677        -0.81859
C         10.01714         4.04590        -0.14182
C         11.00978         6.47763        -0.35521
C          9.99615         5.55011         0.18225
C         10.90121         7.94517        -0.23292
C          9.70073         8.52297         0.44903
C         10.96044        10.74330         0.40158
C          9.70722         9.99433         0.72500
C         11.04179        12.09941         0.95722
C         10.01289        12.73373         1.60617
C         11.18902        14.92972         1.43647
C         10.25747        14.10493         2.01071
C         11.16214        16.40485         1.51116
C          9.82237        17.17261         1.62099
C         11.05278        19.36054         1.04951
C          9.81830        18.48687         0.85394
C         11.10248        20.65874         0.25666
C          9.84758        21.32935        -0.19284
C         11.42360        23.19811        -1.08793
C         10.03842        22.60672        -0.96280
C         11.47741        24.68646        -1.32592
C         10.38925        25.45523        -2.05717
C         11.24968        27.76339        -1.26787
C         10.19924        26.90636        -1.56704
C         11.06032        29.11995        -0.74342
C          9.77982        29.69901        -0.89061
C         13.29536         3.67530        -2.24188
C         11.97353         3.91565        -1.73292
C         13.04493         6.81954        -1.72456
C         11.83105         6.13329        -1.39277
C         13.28784         8.13108        -1.13490
C         12.14231         8.72676        -0.50889
C         13.46635        10.68161         0.02571
C         12.20167        10.05187        -0.05719
C         13.51447        12.02237         0.62607
C         12.26238        12.82340         0.58026
C         13.63660        14.94308         0.86470
C         12.31305        14.29382         0.71633
C         13.61400        16.38442         0.86153
C         12.25940        17.05731         0.65876
C         13.50913        19.22852         0.69677
C         12.32061        18.55271         0.82450
C         13.52760        20.65488         0.67324
C         12.33211        21.35292         0.32148
C         13.63743        23.45379         0.07934
C         12.47097        22.72851        -0.11877
C         13.82161        24.77510        -0.48875
C         12.73852        25.20486        -1.32977
C         13.62849        27.84147        -0.50546
C         12.63140        27.35345        -1.31864
C         13.45938        29.21377        -0.05574
C         12.16998        29.81455        -0.21833
C         15.38728         4.29579        -3.31596
C         14.11749         4.70566        -2.75855
C         15.83187         7.12382        -2.38244
C         13.90052         6.13655        -2.59469
C         15.83277         8.17959        -1.44477
C         14.57505         8.78452        -1.03983
C         15.96798        10.67474        -0.13620
C         14.66302        10.03495        -0.35700
C         16.02088        12.00038         0.31812
C         14.81671        12.72805         0.75678
C         16.07537        14.90570         1.10896
C         14.80496        14.21442         0.86813
C         16.08070        16.41594         1.02773
C         14.79431        17.07656         0.77790
C         16.09351        19.25325         0.54536
C         14.79090        18.51713         0.49361
C         16.08341        20.69242         0.84751
C         14.78352        21.36040         0.95310
C         16.08480        23.56547         0.71300
C         14.78564        22.88534         0.79694
C         16.09264        24.98859         0.41803
C         14.90104        25.61715        -0.16174
C         15.95696        27.82614         0.17524
C         14.85688        27.08690        -0.24158
C         15.89009        29.26722         0.38318
C         14.60269        29.91099         0.33687
C         17.80424         4.17845        -3.59669
C         16.63124         4.93410        -3.22637
C         18.12286         6.51797        -1.96861
C         16.86641         6.19663        -2.55680
C         18.24898         7.68247        -1.13027
C         17.11476         8.60242        -0.90138
C         18.46499        10.61178        -0.03980
C         17.19713         9.90938        -0.32181
C         18.52900        12.03049         0.09791
C         17.29738        12.69992         0.52693
C         18.58386        14.93833         0.60405
C         17.35743        14.16005         0.91199
C         18.58140        16.37129         0.64786
C         17.35935        17.12348         0.77019
C         18.58573        19.26052         0.71608
C         17.36237        18.51051         0.71237
C         18.56012        20.69068         0.83415
C         17.27704        21.39534         0.91656
C         18.51337        23.55879         1.19879
C         17.25321        22.84474         0.94374
C         18.49926        25.09718         1.07655
C         17.26881        25.70799         0.54790
C         18.49997        27.93865         0.53886
C         17.26704        27.15013         0.26332
C         18.34066        29.35329         1.05501
C         17.03670        29.99601         0.66739
C         19.03777         4.52912        -3.13324
C         20.46630         5.86969        -1.63216
C         19.22235         5.64674        -2.24418
C         20.57799         6.89704        -0.70476
C         19.49403         7.75298        -0.45593
C         20.91938        10.63488         0.25706
C         19.69471         9.96005         0.20133
C         20.95611        12.02362         0.16984
C         19.74953        12.75307         0.18123
C         20.95312        14.97020         0.11176
C         19.76019        14.22367         0.30836
C         20.97840        16.34780         0.23021
C         19.80142        17.09420         0.49569
C         21.01360        19.29669         0.63244
C         19.81220        18.54264         0.61695
C         20.99466        20.67260         0.76251
C         19.78285        21.40697         0.87574
C         20.95525        23.62120         1.08046
C         19.79983        22.85792         1.05494
C         20.95150        25.04629         1.07672
C         19.79648        25.80160         0.97299
C         20.89333        28.06041         0.95533
C         19.78565        27.25412         0.87389
C         20.78843        29.49572         0.78391
C         19.59663        30.13988         0.76475
O         10.51655         4.57710         1.15423
O          9.38937        18.28607        -0.52245
O         12.08037        13.68513        -0.60812
O          8.11899        12.38124         3.18914
O         15.45465        18.90539        -0.76770
O         18.14753        27.65937        -0.84944
O          6.86699        24.56204        -2.83481
O          9.66911         8.31768        -1.00669
O          9.40525        14.62455         2.97941
O          5.14669         9.95051         2.81271
O         10.77418        17.07136         2.72398
O         14.77225         6.98788        -3.29409
O         14.58298        22.27276         2.10194
O          9.80164        10.72785        -0.53079
O          8.04706        22.49919        -2.30822
O          8.07475        26.70402        -0.31296
O         16.09413        15.71664         2.32712
O         14.16398        12.07885         1.93940
O          1.38881        12.13768         2.11022
O          8.94422        21.48713         1.01004
O         12.98073        26.30423        -2.17007
O         18.37277        24.42510         2.37341
O          8.39995         9.92734         2.91809
O         17.50997        13.14693         1.95390
O          1.92435         5.64013        -1.54335
O          9.18416         6.69318         2.13328
O         11.44284         5.11212        -2.24961
O         19.69979         8.62508         0.60974
O          2.23321        21.35369        -1.45086
O          4.07931        16.86453         2.70191
O          4.21553         6.66702        -1.73383
H          3.38672         6.45771        -2.23479
O         11.85619        16.79398        -0.71448
H         12.48335        17.24613        -1.31688
O         11.00727        19.75301         2.45371
H         11.77891        20.32891         2.63935
O         11.91279        22.63569        -2.38296
H         11.38279        23.05285        -3.09856
O         18.27250        29.20166         2.51877
H         18.26134        30.09871         2.91354
O          3.58511        21.28671         1.93263
H          4.35341        20.92830         2.42648
O          2.75302         4.60079         1.86561
H          2.90285         3.77008         2.36356
O          7.10429         7.72255         2.96082
H          7.75755         8.13898         3.56603
O          7.06172        17.77654         2.97543
H          6.87569        17.02318         3.57749
O         10.76362        25.54210        -3.47314
H         11.67205        25.92918        -3.49721
H          1.28726         2.43999         0.37112
H         -0.83100         3.71130         0.27159
H         -0.81753         6.20852         0.27303
H         -0.64237         8.04118        -1.00812
H         -0.72964        10.47093        -0.59187
H         -0.80628        12.34685        -0.36651
H         -0.87536        14.71755         0.09412
H         -1.09695        16.49224         0.88890
H         -1.11620        18.93273         0.80583
H         -1.10251        20.94949         0.70654
H         -1.06573        23.27169         0.00353
H         -1.00961        25.15708        -0.66375
H         -0.85578        27.53371        -1.30142
H          0.44283        29.49700        -1.94221
H          3.74252         2.41463        -0.24879
H          2.64992        30.59703        -2.27435
H          6.26333         2.38687        -0.32337
H          5.07173        30.51355        -2.05753
H          8.59792         2.41054        -0.54490
H          7.31934        30.56402        -1.53151
H         11.41747         2.33307        -0.38053
H          9.63311        30.76821        -0.67708
H         13.71593         2.65949        -2.19650
H         12.03584        30.86082         0.09482
H         15.42925         3.24636        -3.65310
H         14.53625        30.98037         0.58694
H         17.67822         3.27508        -4.21091
H         16.93937        31.07987         0.84398
H         19.91807         3.92075        -3.38736
H         21.31450         5.20373        -1.84207
H         21.50416         7.04448        -0.13475
H         21.83994        10.06181         0.42681
H         21.92489        12.53576         0.23132
H         21.88874        14.45161        -0.13717
H         21.93456        16.86858         0.08394
H         21.98446        18.78788         0.56095
H         21.95427        21.20622         0.78802
H         21.93751        23.13024         1.03735
H         21.92808        25.55142         1.06506
H         21.89228        27.63120         1.11901
H         21.72282        30.06458         0.66568
H         19.54405        31.23231         0.64254
