         424
 CSIRO Nanostructure Databank - Neutral Graphene Oxide Data Set
C          1.42651         3.59701         2.10323
C          0.20270         4.24791         2.06986
C          1.28338         6.32418         1.34448
C          0.12782         5.59866         1.70960
C          1.21959         7.71593         0.98187
C          0.08237         8.50166         1.20570
C          1.23381        10.55529         0.49622
C          0.05752         9.86631         0.93572
C          1.22430        12.01365         0.34696
C         -0.03943        12.74021         0.74500
C          1.16745        14.88915         0.29022
C          0.13794        14.22355         0.83352
C          1.21344        16.39418         0.41841
C         -0.06533        17.05798        -0.03329
C          1.14520        19.15348        -0.38321
C         -0.08093        18.37266        -0.33536
C          1.12891        20.57324        -0.51020
C         -0.08016        21.32422        -0.50624
C          1.13987        23.42938        -0.73182
C         -0.07008        22.69859        -0.63715
C          1.14347        24.93937        -0.95618
C         -0.12461        25.69312        -0.63078
C          1.12449        27.81498        -0.48126
C         -0.10575        27.03783        -0.47502
C          1.13619        29.22208        -0.48183
C         -0.07399        30.02808        -0.38444
C          1.21963        32.07764        -0.98783
C         -0.04121        31.36793        -0.54094
C          1.20321        33.55929        -0.70215
C          0.13413        34.31730        -1.09775
C          1.26772        36.42462        -0.56492
C          0.11368        35.73324        -0.94479
C          1.32160        37.86474        -0.58376
C          3.87263         3.64349         1.84933
C          2.62127         4.29353         1.76599
C          3.76459         6.37708         1.04644
C          2.55153         5.66275         1.36002
C          3.72311         7.72609         0.61028
C          2.38228         8.32158         0.24265
C          3.60579        10.47874        -0.24466
C          2.38796         9.82304         0.25218
C          3.56161        11.97485        -0.46685
C          2.31646        12.69305        -0.11045
C          3.61056        14.86686        -0.38040
C          2.26160        14.16645        -0.45941
C          3.60016        16.31133        -0.43165
C          2.42016        17.03595        -0.21976
C          3.60221        19.17337        -0.63131
C          2.38271        18.45591        -0.39564
C          3.58708        20.58184        -0.73079
C          2.36579        21.28920        -0.64722
C          3.63684        23.42723        -0.71710
C          2.35813        22.72664        -0.72688
C          3.60608        24.90111        -0.67093
C          2.32115        25.56858        -0.20115
C          3.57261        27.72179        -0.30192
C          2.36605        27.07623        -0.37104
C          3.62949        29.16592        -0.54176
C          2.38507        29.93989        -0.50456
C          3.67072        32.03367        -0.19956
C          2.45336        31.34126        -0.51103
C          3.67046        33.48241        -0.06441
C          2.34675        34.20882         0.03052
C          3.66824        36.35946        -0.06361
C          2.45312        35.69127        -0.23576
C          3.72096        37.80145        -0.14908
C          2.49570        38.52524        -0.36960
C          6.31936         3.67536         1.65316
C          5.07129         4.32961         1.56404
C          6.22725         6.40733         0.86719
C          5.01967         5.71457         1.17029
C          6.18566         7.78395         0.48783
C          4.92417         8.44381         0.36316
C          6.09556        10.56153        -0.20019
C          4.90926         9.82541        -0.03206
C          6.03796        12.00371        -0.38267
C          4.84315        12.70765        -0.44443
C          6.06076        14.87176        -0.70412
C          4.80756        14.16135        -0.47802
C          6.04989        16.30889        -0.80303
C          4.83377        17.02629        -0.67476
C          6.07961        19.16232        -0.74487
C          4.83201        18.44519        -0.72042
C          6.10448        20.57041        -0.73985
C          4.85418        21.31191        -1.11367
C          6.11329        23.43658        -0.42578
C          4.85015        22.76652        -0.72252
C          6.13058        24.84726        -0.23274
C          4.90209        25.61555        -0.47173
C          6.10645        27.74089         0.09591
C          4.80667        26.98180         0.15233
C          6.11389        29.10894         0.12729
C          4.94213        29.89726        -0.29652
C          6.10518        31.98692         0.32803
C          4.87877        31.32771         0.00731
C          6.07629        33.45318         0.65184
C          4.84027        34.17408         0.17775
C          6.11909        36.29417         0.19930
C          4.88744        35.62092         0.15340
C          6.16196        37.72901         0.08807
C          4.94286        38.45533        -0.04227
C          8.76446         3.68357         1.41424
C          7.52090         4.34673         1.34052
C          8.68117         6.40991         0.59722
C          7.47731         5.72805         0.93811
C          8.64108         7.78925         0.21747
C          7.39361         8.48294         0.18104
C          8.59394        10.54183        -0.42412
C          7.36657         9.87550        -0.13787
C          8.60433        12.02178        -0.52505
C          7.30564        12.76041        -0.45250
C          8.48393        14.87580        -1.36725
C          7.25285        14.17588        -0.84239
C          8.52533        16.32305        -0.97139
C          7.30040        17.01538        -0.85322
C          8.53994        19.13871        -0.67681
C          7.30217        18.43429        -0.73216
C          8.52904        20.54072        -0.43566
C          7.31724        21.26860        -0.46850
C          8.50102        23.34594         0.41681
C          7.29512        22.68878        -0.22468
C          8.55352        24.84292         0.23022
C          7.32276        25.56131         0.08959
C          8.57357        27.67781         0.33935
C          7.33350        26.98152         0.21565
C          8.59943        29.10504         0.45252
C          7.30315        29.82169         0.69974
C          8.57396        31.98787         0.44544
C          7.31383        31.29856         0.42574
C          8.59094        33.42445         0.34643
C          7.37372        34.15620         0.35207
C          8.61106        36.24950         0.13164
C          7.37156        35.55701         0.25170
C          8.62547        37.70177         0.04873
C          7.39840        38.39861         0.05649
C         11.20367         3.67290         1.15276
C          9.96461         4.34260         1.07207
C         11.12417         6.38092         0.25744
C          9.92445         5.71761         0.64257
C         11.07210         7.73991        -0.14626
C          9.85111         8.46064        -0.13791
C         11.07135        10.58393        -0.72657
C          9.82034         9.86076        -0.46820
C         11.06775        11.97634        -0.97938
C          9.75645        12.65651        -1.28228
C         10.99751        14.85755        -1.15257
C          9.78933        14.15589        -1.13965
C         11.01299        16.29967        -1.10130
C          9.76304        17.02175        -0.97276
C         11.00647        19.21263        -1.11709
C          9.75953        18.42739        -0.83314
C         11.04930        20.55656        -0.45279
C          9.79226        21.16293         0.08991
C         10.99921        23.33237         0.18150
C          9.80890        22.66669         0.08043
C         11.00695        24.75147         0.69900
C          9.75830        25.52095         0.35021
C         11.04020        27.65218         0.46627
C          9.79675        26.95054         0.36215
C         11.04845        29.07451         0.50707
C          9.80325        29.80746         0.50529
C         11.02611        31.98135         0.50303
C          9.79291        31.26913         0.49622
C         11.07803        33.37815         0.30250
C          9.83429        34.11275         0.21784
C         11.06673        36.23757        -0.23013
C          9.81633        35.52471         0.10304
C         11.08851        37.71286        -0.06622
C          9.85278        38.39117         0.00644
C         13.65170         3.64114         0.92033
C         12.40928         4.32122         0.80732
C         13.60004         6.30082        -0.02158
C         12.37808         5.67464         0.33489
C         13.59731         7.66541        -0.60507
C         12.28889         8.41168        -0.63841
C         13.53244        10.56924        -0.91500
C         12.30509         9.88594        -0.71835
C         13.50112        11.96473        -1.16205
C         12.27718        12.68762        -1.17129
C         13.46022        14.87619        -1.31185
C         12.26454        14.14486        -1.24452
C         13.49063        16.29914        -1.16043
C         12.24920        17.01436        -1.07152
C         13.49714        19.13867        -0.85611
C         12.27802        18.43034        -0.95981
C         13.49699        20.55539        -0.60528
C         12.25072        21.24556        -0.36219
C         13.47696        23.35207         0.08234
C         12.26284        22.64864        -0.00251
C         13.48934        24.78918         0.30252
C         12.28801        25.50224         0.44117
C         13.51759        27.64170         0.50045
C         12.28285        26.92686         0.48414
C         13.51491        29.07399         0.59778
C         12.28671        29.76569         0.62142
C         13.57707        31.97986         0.77257
C         12.25842        31.22971         0.79792
C         13.55874        33.39862         0.37308
C         12.35050        34.05868         0.17331
C         13.67474        36.26377        -0.35684
C         12.35740        35.47444        -0.28634
C         13.55238        37.68312         0.18212
C         12.30494        38.36805         0.11850
C         16.12483         3.58523         0.75395
C         14.85138         4.27415         0.59747
C         16.07711         6.24382        -0.38541
C         14.81076         5.62360         0.13214
C         16.06514         7.75425        -0.47932
C         14.86613         8.43595        -0.64778
C         16.01634        10.57359        -1.05145
C         14.81630         9.86666        -0.88917
C         16.03280        11.98255        -1.30388
C         14.74386        12.65420        -1.52915
C         16.00168        14.89623        -1.42510
C         14.72818        14.18441        -1.60311
C         15.97900        16.29974        -1.23201
C         14.73023        17.00986        -1.13683
C         15.97163        19.15695        -0.91940
C         14.74191        18.43016        -0.96483
C         15.95773        20.57538        -0.66371
C         14.71842        21.25840        -0.44961
C         15.94874        23.34551         0.04578
C         14.71647        22.65748        -0.12364
C         15.96569        24.77186         0.26871
C         14.74167        25.49509         0.32765
C         15.99274        27.62887         0.49024
C         14.74963        26.91994         0.44925
C         16.00366        29.06136         0.55737
C         14.77766        29.79138         0.61017
C         16.04682        31.91162         0.48625
C         14.81700        31.20327         0.60588
C         16.02857        33.35650         0.40117
C         14.83881        34.06852         0.27343
C         15.98363        36.21797         0.59669
C         14.85883        35.52126         0.21261
C         15.93553        37.66030         0.82195
C         14.68411        38.34352         0.61619
C         18.60459         3.65557         0.95675
C         17.31518         4.24061         0.61767
C         18.56749         6.43935         0.19425
C         17.29051         5.69851         0.33048
C         18.54665         7.81609        -0.36152
C         17.32774         8.43229        -0.60536
C         18.53410        10.60241        -0.80233
C         17.31533         9.81117        -1.20797
C         18.50882        12.06581        -1.04232
C         17.21734        12.73361        -1.37295
C         18.46747        14.89485        -1.30619
C         17.21850        14.16445        -1.42385
C         18.43395        16.31997        -1.26865
C         17.21826        17.02303        -1.18408
C         18.44884        19.16710        -1.00828
C         17.21133        18.45958        -1.04800
C         18.43831        20.67656        -1.04826
C         17.17238        21.29848        -0.52319
C         18.43731        23.26308         0.41025
C         17.17018        22.62997        -0.10227
C         18.44381        24.77167         0.34558
C         17.20985        25.47791         0.35555
C         18.46442        27.61007         0.55588
C         17.21724        26.90752         0.45166
C         18.48326        29.03130         0.61063
C         17.24477        29.77028         0.55406
C         18.57968        31.90125         0.33060
C         17.25894        31.18389         0.49197
C         18.52501        33.35156         0.73892
C         17.32978        34.12517         0.25471
C         18.30475        36.14284         1.39798
C         17.23353        35.51487         0.84751
C         18.30754        37.62854         1.70083
C         17.02236        38.31430         1.34324
C         19.77083         4.32112         0.79275
C         21.04368         6.49018         0.30810
C         19.83706         5.62966         0.04294
C         21.02127         7.80591         0.00350
C         19.81626         8.52358        -0.41080
C         21.02458        10.70493        -0.68432
C         19.83409         9.88543        -0.69352
C         21.01545        12.02949        -0.97297
C         19.78771        12.75593        -1.45704
C         20.85777        14.97426        -0.72025
C         19.71132        14.23108        -1.14468
C         20.86706        16.33525        -0.76175
C         19.74015        17.04553        -1.46280
C         20.88872        19.25728        -1.14932
C         19.67328        18.51890        -1.16944
C         20.92145        20.59485        -0.81245
C         19.71861        21.31642        -0.56005
C         20.91863        23.35923         0.14496
C         19.71417        22.62519        -0.08618
C         20.89539        24.69210         0.46185
C         19.66827        25.44622         0.49244
C         20.90076        27.58890         0.83031
C         19.68934        26.87918         0.62179
C         20.91203        28.95957         0.95750
C         19.71914        29.72011         0.82169
C         20.82440        31.85278         1.46781
C         19.73589        31.14475         0.92393
C         20.78467        33.22794         1.63514
C         19.61883        33.97906         1.28030
C         20.65447        36.18533         0.69950
C         19.64457        35.46440         1.56840
C         20.51335        37.54596         0.45917
C         19.44055        38.28342         0.95002
O         11.58573        35.70626        -1.52048
O          8.22746        12.62712         0.74590
O         18.42422        11.53998         0.32787
O         17.84994         6.42283         1.47802
O         12.89523        31.69215         2.05007
O         12.83818         7.75896        -1.86417
O          4.51064        29.55569        -1.66355
O          4.29934        25.52312        -1.80147
O          3.43686        11.05290        -1.61154
O         14.66460        13.35994        -2.81662
O         16.22534         5.76849        -1.76665
H         15.39540         5.97933        -2.24553
O          4.86687        21.31898        -2.59743
H          4.17342        21.94875        -2.89086
O         20.10448        35.61991         2.94182
H         19.84499        36.53184         3.22940
O          4.60386        26.71563         1.59468
H          4.87153        27.51735         2.09475
O         18.40314        20.99663        -2.49448
H         19.12646        20.48621        -2.91913
O         10.92310        24.57954         2.17557
H         11.09152        25.45782         2.58059
O         10.91100        19.51507        -2.58058
H         11.76197        19.92853        -2.84330
O         -1.09842        12.43951        -0.18865
H         -0.81443        12.76040        -1.06996
O         17.47902         9.62118        -2.65435
H         16.73451         9.06710        -2.97107
O          2.17208         7.95568        -1.18699
H          2.68646         8.59301        -1.72975
O          1.40682        25.14480        -2.37046
H          0.64988        24.78778        -2.87893
O          9.46642        12.34699        -2.68694
H         10.08525        12.86193        -3.24617
O          1.33267        16.67007         1.85780
H          1.34398        17.64478         1.96752
O          8.29487        14.89871        -2.85072
H          8.89513        15.58828        -3.20818
O          2.16047        25.26880         1.20214
H          2.91741        25.68839         1.67819
O         18.54445        37.83661         3.14532
H         17.74586        37.51978         3.61858
O         19.80883        12.66428        -2.92367
H         20.67212        13.00889        -3.23405
O          9.76503        20.80961         1.53395
H          9.12352        21.43973         1.95404
O          8.35835        23.14927         1.88579
H          9.12415        23.63013         2.29078
O          7.09488        29.72403         2.18033
H          7.92655        30.02786         2.60474
O          1.88438        14.21801        -1.87649
H          2.51910        13.65698        -2.37219
O         18.83287        31.90790        -1.14918
H         19.76197        32.19946        -1.27500
O         19.88366         5.28264        -1.38105
H         20.71178         4.78495        -1.54358
O          5.94449        33.49754         2.13388
H          6.65884        32.93417         2.50251
O          1.99324        34.09303         1.46993
H          2.74846        34.45706         1.98127
O         18.41633        22.95619         1.86113
H         19.20122        23.39281         2.25667
O         17.52774        34.32659        -1.18356
H         17.79653        33.44859        -1.55217
O          1.23913        31.97376        -2.45533
H          1.36306        31.02722        -2.68233
O         20.04556        16.95718        -2.91341
H         19.95608        16.01187        -3.16268
O         14.00425        36.42729        -1.76647
H         13.14584        36.41742        -2.25400
H          1.48817         2.53991         2.39896
H         -0.71671         3.70518         2.33038
H         -0.85727         6.08362         1.68314
H         -0.81736         8.04570         1.64334
H         -0.87294        10.42315         1.09874
H         -0.38036        12.36143         1.74494
H         -0.65143        14.78240         1.35982
H         -1.00138        16.48060        -0.01779
H         -1.03377        18.85892        -0.58842
H         -1.04547        20.81049        -0.40571
H         -1.03161        23.23028        -0.64356
H         -1.09407        25.17288        -0.62500
H         -1.05938        27.56790        -0.33446
H         -1.02534        29.53465        -0.13816
H         -0.96825        31.95294        -0.44683
H         -0.72456        33.83427        -1.58698
H         -0.78631        36.29429        -1.23456
H          0.39660        38.42240        -0.79144
H          3.91404         2.58776         2.15552
H          2.53198        39.62411        -0.39733
H          6.35419         2.61869         1.95610
H          4.98295        39.55213        -0.12009
H          8.79820         2.63192         1.73419
H          7.40919        39.49639        -0.01789
H         11.23155         2.62918         1.49854
H          9.85127        39.49023         0.06027
H         13.65988         2.60045         1.27659
H         12.29409        39.44859         0.33215
H         16.10492         2.52447         1.04734
H         14.61828        39.40694         0.89552
H         18.60583         2.65038         1.40721
H         16.95979        39.39493         1.54536
H         20.71899         3.84708         1.09287
H         21.97774         6.01748         0.65030
H         21.94527         8.38849         0.13111
H         21.98850        10.23296        -0.44316
H         21.97540        12.56758        -0.98843
H         21.73010        14.43650        -0.32129
H         21.74432        16.89499        -0.40911
H         21.83416        18.73410        -1.34699
H         21.89784        21.08172        -0.68516
H         21.89336        22.87028         0.01167
H         21.85300        25.20804         0.60576
H         21.85375        27.05005         0.90521
H         21.87061        29.47092         1.11788
H         21.70442        31.30274         1.83036
H         21.62835        33.75197         2.10296
H         21.55528        35.65226         0.36123
H         21.29317        38.06853        -0.11685
H         19.37879        39.36290         0.75002
