         234
 CSIRO Nanostructure Databank - Neutral Graphene Oxide Data Set
C          1.18281         2.13276         0.76649
C          1.16840         3.47626         1.08631
C          2.35291         1.41494         0.49987
C          2.41045         4.30218         1.27628
C          1.19000         6.28682         0.28476
C          1.11995         7.72045         0.05793
C          2.34639         5.68428         0.65346
C          2.23781         8.48489        -0.01832
C          1.02423        10.72241        -0.49114
C          1.07721        12.07477        -0.63143
C          2.18153         9.97381         0.00717
C          2.31586        12.82710        -0.57371
C          1.16615        15.03673        -0.52690
C          1.17867        16.46905        -0.46975
C          2.28816        14.28004        -0.78052
C          2.33348        17.20152        -0.64332
C          2.41320        18.62142        -0.40326
C          3.66301         2.03806         0.62178
C          3.71047         3.54844         0.93756
C          4.86815         1.41615         0.08818
C          4.88906         4.30051         0.42637
C          3.62421         6.49480         0.74520
C          3.57049         7.76165        -0.14067
C          4.83454         5.67553         0.32176
C          4.80355         8.61096         0.09520
C          3.49978        10.74439         0.04010
C          3.51270        12.14838        -0.38375
C          4.77568         9.98166         0.05541
C          4.84660        12.69563        -0.84169
C          3.56025        14.97954        -1.09157
C          3.57468        16.49406        -1.02416
C          4.84732        14.21423        -1.00154
C          4.87117        17.22770        -0.86134
C          3.60019        19.29845        -0.29618
C          4.87994        18.64415        -0.42271
C          6.08192         2.11074         0.08765
C          6.10671         3.54935         0.15712
C          7.32429         1.41808        -0.03722
C          7.33702         4.19781        -0.06594
C          6.00973         6.42826        -0.15400
C          6.07023         7.90060         0.10212
C          7.30129         5.65328        -0.32902
C          7.27014         8.56938         0.26136
C          6.00249        10.75764         0.32420
C          6.07742        12.16816        -0.12319
C          7.29430        10.00708         0.59417
C          7.29379        12.80234        -0.28479
C          6.07330        14.94657        -0.53905
C          6.08888        16.43871        -0.50525
C          7.36248        14.22316        -0.52127
C          7.38866        17.13264        -0.54030
C          6.09127        19.26224        -0.22810
C          7.36656        18.57991        -0.40300
C          8.55940         2.05192        -0.05734
C          8.57885         3.49155        -0.14347
C          9.73884         1.07395         0.14231
C          9.80162         4.28935        -0.16709
C          8.57566         6.42909        -0.27238
C          8.56221         7.90766        -0.01105
C          9.79527         5.66808         0.02086
C          9.83845         8.59693         0.31245
C          8.61087        10.80856         0.62976
C          8.58780        12.00797        -0.33469
C          9.85305         9.98845         0.36407
C          9.84802        12.83583        -0.16728
C          8.56188        14.93535        -0.46221
C          8.56054        16.38726        -0.52401
C          9.83462        14.22727        -0.33167
C          9.85062        17.09071        -0.61893
C          8.55078        19.28042        -0.29850
C          9.84028        18.63022        -0.52327
C         11.10318         1.57177        -0.25592
C         11.08678         3.69879        -0.44186
C         12.33710         1.26624         0.21622
C         12.30721         4.23344        -0.08293
C         11.01535         6.39063         0.39234
C         11.05695         7.86407         0.31637
C         12.33472         5.62185         0.41364
C         12.29796         8.52969         0.33782
C         11.08168        10.69132         0.26948
C         11.07588        12.11994         0.06914
C         12.30817         9.96166         0.26817
C         12.31023        12.79385        -0.00021
C         11.06565        14.97639        -0.26326
C         11.09310        16.36740        -0.28085
C         12.37454        14.24330        -0.41195
C         12.29988        17.10326         0.01515
C         11.08700        19.27965        -0.13969
C         12.28688        18.57024         0.02649
C         13.53941         2.04740        -0.11875
C         13.54377         3.48523        -0.16659
C         14.75902         1.37688        -0.24228
C         14.77746         4.18779        -0.10111
C         13.58157         6.37878         0.22707
C         13.55099         7.78947         0.26406
C         14.78557         5.65040        -0.01791
C         14.77769         8.51275         0.13683
C         13.54233        10.67161         0.18670
C         13.51940        12.07933         0.07134
C         14.79057         9.93959         0.16011
C         14.78168        12.84409         0.02652
C         13.56392        14.98122         0.17547
C         13.47488        16.40667         0.34343
C         14.74667        14.28784         0.36644
C         14.63803        17.10563         0.90464
C         13.49619        19.28510         0.17140
C         14.68468        18.67159         0.72647
C         16.00596         2.03951        -0.31114
C         16.01868         3.47547        -0.12740
C         17.14803         1.24304        -0.71496
C         17.23035         4.24216        -0.17732
C         15.98759         6.37739        -0.16112
C         15.99893         7.80508        -0.06323
C         17.23405         5.67419        -0.36188
C         17.22295         8.52456        -0.18965
C         16.02412        10.61657         0.13580
C         16.06178        12.09821         0.13096
C         17.23967         9.91600        -0.02418
C         17.24724        12.74702         0.81023
C         16.00049        14.93682         0.70470
C         15.94122        16.37984         1.05083
C         17.20158        14.26181         0.77470
C         17.24168        17.17347         1.05527
C         15.99737        19.29638         0.59165
C         17.19866        18.62146         0.74324
C         18.45186         1.54990        -0.37606
C         18.49334         3.64559        -0.02486
C         19.71947         1.15332        -0.92466
C         19.68196         4.18741        -0.54921
C         18.41677         6.34995        -0.65397
C         18.44265         7.82112        -0.65447
C         19.65077         5.60068        -0.93462
C         19.77202         8.54112        -0.61847
C         18.52713        10.67250        -0.09145
C         18.53856        12.11960         0.29121
C         19.79311         9.85427         0.15646
C         19.82268        12.74440         0.75067
C         18.47165        14.98060         1.05052
C         18.50747        16.44116         0.84578
C         19.80674        14.24017         0.96628
C         19.69832        17.12084         0.65483
C         18.44536        19.26659         0.51950
C         19.66598        18.57248         0.50346
C         20.82929         1.97603        -0.88480
C         20.85853         3.40583        -0.70023
C         22.11142         4.11047        -0.73846
C         21.04471         6.33183        -0.97138
C         21.06060         7.79048        -0.68110
C         22.19789         5.47786        -0.69099
C         22.21453         8.50832        -0.56519
C         21.08533        10.63079        -0.03193
C         21.11019        12.04081         0.45709
C         22.21744         9.93661        -0.32962
C         22.29081        12.90201         0.25335
C         21.01887        15.00313         0.61908
C         20.97340        16.41971         0.55431
C         22.21213        14.26237         0.30372
C         22.14578        17.19870         0.35635
C         20.88028        19.27123         0.29949
C         22.09322        18.58640         0.24190
O          9.95703        17.91387        -1.82013
O          4.29253        14.55197        -2.30685
O          2.71661        10.51467         1.26597
O         18.57853         2.45873         0.70432
O          3.99972         2.60698         1.98310
O         14.37703        17.98557         2.00319
O         18.57659        11.72263        -1.11197
O          5.84757        15.66526         0.73773
O          6.47388         6.00573        -1.48054
O         11.05302         2.55764        -1.26507
O          6.45374        10.43960         1.70562
O         19.18967        14.54559         2.27097
O         15.65290        12.63800        -1.16708
O         16.60240        16.72722         2.30185
O         11.61197         5.87770         1.65731
O         19.01922         8.50084        -1.85219
O         20.51856        12.06739         1.84997
O         20.32350         5.94750        -2.17720
O          8.69687         7.36767        -1.39416
O          4.28385        17.06074        -2.18376
O         12.61457        14.22370        -1.86600
H         13.45283        13.73466        -2.02068
O          2.50505         4.57123         2.72524
H          2.85127         3.74104         3.13064
O         19.74634         9.45882         1.55718
H         19.97705        10.26242         2.08852
O          3.64997         7.27049        -1.50786
H          3.91007         8.00721        -2.09869
O          8.62721        11.44765        -1.67680
H          8.63113        12.18357        -2.32420
O         17.16998        12.39038         2.21760
H         17.83292        12.94371         2.69543
O          5.00301        12.11886        -2.18229
H          4.61253        12.77881        -2.80713
O          9.46973        -0.14512        -0.57200
H          9.53710         0.04652        -1.53039
O          8.78671        11.33787         1.96080
H          7.90730        11.29272         2.40924
O          3.81764         6.89807         2.11720
H          3.42151         6.19455         2.68975
H          0.22071         1.60673         0.67589
H          0.20864         3.95312         1.32724
H          2.29382         0.39261         0.10228
H          0.24350         5.72735         0.27592
H          0.12199         8.18362         0.06427
H          0.10187        10.18039        -0.74525
H          0.17275        12.60571        -0.96109
H          0.22414        14.53486        -0.26453
H          0.24895        16.98354        -0.18673
H          1.46924        19.16383        -0.24312
H          4.84251         0.35177        -0.18763
H          3.58953        20.37445        -0.06692
H          7.30440         0.31802        -0.01904
H          6.12021        20.32874         0.04324
H          9.75685         0.79972         1.23160
H          8.53851        20.34313        -0.01366
H         12.46379         0.42423         0.91334
H         11.08149        20.36549         0.03728
H         14.75306         0.27739        -0.27717
H         13.52669        20.34790        -0.10987
H         16.94727         0.37716        -1.36435
H         16.02262        20.33544         0.22917
H         19.81630         0.15748        -1.38379
H         18.45119        20.35358         0.34974
H         21.78332         1.53598        -1.21952
H         23.03319         3.51509        -0.65131
H         23.16530         5.95038        -0.46623
H         23.19002         8.01347        -0.67462
H         23.19042        10.44722        -0.36757
H         23.24928        12.43303        -0.00831
H         23.12868        14.82797         0.08614
H         23.12753        16.71001         0.31163
H         20.85706        20.36484         0.19215
H         23.02668        19.14850         0.09828
