         241
 CSIRO Nanostructure Databank - Neutral Graphene Oxide Data Set
C          1.53363         1.70584        -1.53515
C          1.62851         2.96206        -2.14441
C          2.61744         1.21068        -0.82508
C          2.77868         3.74321        -1.93835
C          1.88567         6.99124        -2.59476
C          1.72183         8.26838        -2.10789
C          2.88752         6.13671        -2.07182
C          2.65699         8.78152        -1.18326
C          1.33058        10.90767        -0.86488
C          1.23658        12.23181        -0.47926
C          2.53375        10.14259        -0.70193
C          2.32858        12.92808         0.10073
C          1.14774        15.12654         0.25254
C          1.17400        16.50630         0.33643
C          2.34029        14.34630         0.28844
C          2.40203        17.21952         0.38503
C          2.45979        18.64540         0.41927
C          3.80083         1.98346        -0.66396
C          3.84995         3.33249        -1.13960
C          4.98263         1.34714        -0.20965
C          5.07199         4.22464        -0.95485
C          3.82400         6.56049        -1.11737
C          3.75023         7.95657        -0.75774
C          4.76842         5.62506        -0.31388
C          4.82023         8.58817        -0.04630
C          3.62887        10.74092        -0.06852
C          3.53339        12.13996         0.38709
C          4.83044         9.99122         0.15383
C          4.83837        12.89226         0.61230
C          3.59474        15.05026         0.40901
C          3.62154        16.47858         0.38550
C          4.82690        14.35650         0.49074
C          4.86655        17.16703         0.30600
C          3.66476        19.31406         0.43489
C          4.90830        18.61225         0.36149
C          6.18152         2.08256        -0.08389
C          6.15535         3.48617        -0.19795
C          7.43603         1.40945         0.13646
C          7.29507         4.19705         0.47168
C          6.07345         6.34814         0.04644
C          5.97136         7.79345         0.39237
C          7.24015         5.69531         0.31528
C          7.24818         8.56054         0.78120
C          6.05456        10.69398         0.44160
C          6.08959        12.17186         0.15239
C          7.25508        10.02388         0.64838
C          7.33321        12.84653         0.64943
C          6.05830        15.04394         0.41950
C          6.07528        16.43685         0.25085
C          7.31519        14.33245         0.87308
C          7.31288        17.17886        -0.20852
C          6.14336        19.28260         0.44070
C          7.38172        18.60112         0.29525
C          8.64201         2.09922         0.04297
C          8.62689         3.56192         0.09919
C          9.89809         1.43549         0.05126
C          9.79281         4.26818         0.07948
C          8.48678         6.39975         0.71072
C          8.53350         7.86162         0.69879
C          9.82305         5.67628         0.52237
C          9.73743         8.55248         0.72201
C          8.50275        10.71274         0.79144
C          8.49372        12.15208         0.88208
C          9.72617         9.99563         0.87507
C          9.74733        12.88615         1.22546
C          8.59555        14.93752         0.34473
C          8.60357        16.39106        -0.03637
C          9.85167        14.28932         0.77131
C          9.86815        17.09586         0.16970
C          8.61454        19.22746         0.38639
C          9.86714        18.51738         0.26996
C         11.10884         2.13480        -0.06713
C         11.07484         3.61712        -0.39396
C         12.33739         1.47302        -0.06122
C         12.32396         4.35300         0.02136
C         11.04907         6.47131         0.37234
C         11.00878         7.86194         0.56906
C         12.31816         5.77779         0.22045
C         12.22505         8.60948         0.67999
C         10.94772        10.65353         1.13465
C         11.03099        12.11043         1.38764
C         12.16188         9.94189         1.09368
C         12.34192        12.80131         1.16460
C         11.06432        14.91572         0.58218
C         11.07131        16.35296         0.29353
C         12.33702        14.20411         0.79148
C         12.29243        17.04623         0.25227
C         11.10134        19.18776         0.30490
C         12.31792        18.47018         0.21826
C         13.57269         2.18618        -0.10746
C         13.54811         3.65025         0.08767
C         14.76919         1.56405        -0.37824
C         14.74614         4.31855         0.34736
C         13.52045         6.48296         0.32577
C         13.54607         7.98551         0.27993
C         14.84521         5.79444         0.14555
C         14.72049         8.55702         1.06756
C         13.32697        10.62320         1.75701
C         13.52972        12.08382         1.30638
C         14.52597         9.73650         1.72837
C         14.81737        12.72242         1.09944
C         13.54556        14.84420         0.55017
C         13.55749        16.26656         0.00884
C         14.81211        14.14165         0.69125
C         14.77887        17.02948         0.51654
C         13.56647        19.16420         0.09962
C         14.79123        18.49143         0.12443
C         16.01579         2.38983        -0.50447
C         15.98006         3.49221         0.56390
C         17.29027         1.59972        -0.42875
C         17.27078         4.27415         0.61447
C         16.03832         6.45434         0.83480
C         16.00114         7.84678         1.12621
C         17.24671         5.69926         0.88556
C         17.24223         8.52477         1.44228
C         16.37806        10.79173         1.67958
C         16.07492        12.06966         1.13796
C         17.45359         9.96241         1.34856
C         17.18772        12.70229         0.32779
C         16.00741        14.83317         0.50412
C         16.01059        16.25714         0.10003
C         17.35862        14.16659         0.72630
C         17.27144        16.99002        -0.20244
C         16.00723        19.16180        -0.07561
C         17.25400        18.48576        -0.23602
C         18.43559         2.16296         0.06379
C         18.44306         3.54743         0.55178
C         19.69268         1.43902        -0.02000
C         19.74882         4.14936         0.89304
C         18.46960         6.36008         1.20076
C         18.37823         7.69233         1.58723
C         19.79777         5.66545         1.17896
C         20.21654         8.67014         0.94778
C         18.77665        10.70493         1.05918
C         18.51496        11.98521         0.30194
C         19.90162         9.91901         0.41664
C         19.50683        12.59467        -0.44069
C         18.48193        14.81272        -0.06729
C         18.61004        16.31318         0.09010
C         19.44112        14.04746        -0.69463
C         19.72267        16.94273        -0.74827
C         18.40692        19.15508        -0.58282
C         19.61561        18.42916        -1.03136
C         20.89308         2.06153         0.13080
C         20.97765         3.45770         0.47565
C         22.17514         4.14825         0.47491
C         21.05999         6.33264         0.75492
C         21.08180         7.74366         0.34443
C         22.19420         5.56552         0.54707
C         21.85434         8.23944        -0.72984
C         20.74872        10.42997        -0.59306
C         20.64866        11.84465        -0.93753
C         21.72867         9.56517        -1.13930
C         21.59256        12.47929        -1.72474
C         20.51105        14.66319        -1.47354
C         20.52212        16.10951        -1.66760
C         21.52342        13.86957        -1.98576
C         21.28070        16.73173        -2.63593
C         20.34369        18.94680        -2.19546
C         21.18266        18.13662        -2.89905
O          9.18764         5.81107         1.86435
O         15.49845        10.20630         2.62061
O          4.13026        12.34709         1.74049
O          2.86922         4.90149        -2.70508
O         16.48581        16.41885        -1.29588
O         19.53848         8.28966         2.11787
O         10.28508        12.59673         2.55569
O         19.89082         4.69054         2.25487
O          8.64212        15.31569        -1.06483
O         20.51414        17.89886         0.03830
O         15.17779         5.93049        -1.31966
H         15.47680         5.04066        -1.63882
O         17.65438        14.26616         2.13420
H         18.16745        15.09825         2.27787
O         15.85633         2.81250         1.84552
H         15.96780         3.47767         2.55638
O         16.70406        12.70638        -1.05106
H         17.22631        13.36439        -1.55871
O         15.99465         3.10291        -1.79346
H         15.90158         2.43702        -2.50706
O         19.26044        11.10852         2.38095
H         19.45383        10.27672         2.87031
O          4.07984         5.33778         0.92216
H          4.15909         6.11451         1.51489
O         18.88962        16.59363         1.49242
H         19.66364        17.21469         1.49276
O          5.63561         4.52827        -2.26904
H          5.68947         3.69272        -2.77835
O         12.94965        10.71265         3.16644
H         13.77616        10.89272         3.66745
O          6.06405        12.33186        -1.31528
H          6.91541        11.99634        -1.66776
O         13.68935        16.17193        -1.43617
H         12.91287        15.68583        -1.78363
O          7.37728        14.56741         2.31519
H          6.69311        14.01320         2.74728
O         14.71615        16.98629         1.96436
H         15.44969        17.52591         2.32569
O         11.04066         3.69699        -1.86599
H         10.31860         3.10803        -2.17167
O         13.73367         8.34719        -1.13278
H         14.32688         7.66274        -1.52678
O          6.33414         8.03760         1.79973
O          7.12843         3.96882         1.90962
H          7.84373         4.48863         2.35143
O          7.11937        17.32959        -1.65129
H          7.39081        16.47337        -2.05580
H          0.62861         1.09678        -1.66481
H          0.81973         3.34677        -2.77858
H          2.59322         0.19180        -0.41420
H          1.20548         6.58854        -3.35654
H          0.90274         8.89499        -2.48333
H          0.44905        10.43444        -1.31829
H          0.29732        12.76928        -0.67308
H          0.17528        14.61756         0.19360
H          0.22953        17.06986         0.33731
H          1.51741        19.21221         0.44320
H          4.97402         0.26911         0.00373
H          3.68032        20.41292         0.48294
H          7.43845         0.31169         0.20275
H          6.15121        20.36576         0.63926
H          9.92192         0.34730         0.21337
H          8.65563        20.30750         0.59749
H         12.35937         0.37229        -0.06543
H         11.12348        20.28608         0.35440
H         14.80952         0.47469        -0.53043
H         13.55021        20.25373        -0.05569
H         17.32241         0.59443        -0.87806
H         15.98829        20.25080        -0.23851
H         19.65321         0.37579        -0.29858
H         18.38661        20.24981        -0.69763
H         21.83024         1.50601        -0.02228
H         23.10989         3.61600         0.24665
H         23.13905         6.07655         0.31095
H         22.56456         7.57849        -1.24671
H         22.38300         9.92782        -1.94378
H         22.43742        11.91523        -2.14245
H         22.33115        14.32353        -2.57596
H         21.90664        16.13277        -3.31210
H         20.16918        19.98605        -2.50973
H         21.74172        18.54107        -3.75500
