         297
 CSIRO Nanostructure Databank - Neutral Graphene Oxide Data Set
C         30.33621        31.56298         0.59455
C         30.48455        32.68441         1.23119
C         30.37673        35.70787         2.16628
C         30.30824        36.93168         2.35434
C         30.21262        40.70914         0.74690
C         30.28942        41.77179         0.01994
C         32.68378        29.21761        -1.14381
C         31.62796        29.70129        -0.71505
C         32.75068        31.46636         0.45368
C         31.39466        30.87824         0.06770
C         32.80050        32.78842         1.19336
C         31.52102        33.50037         1.53611
C         32.66852        35.76832         1.48145
C         31.57344        34.83126         2.23956
C         32.62953        37.26132         1.82888
C         31.42371        37.83540         2.13203
C         32.47389        40.04001         0.28090
C         31.26114        39.91228         1.14075
C         32.55189        41.37475        -0.55405
C         31.40344        42.36913        -0.49898
C         32.93443        44.15195        -1.23551
C         31.81883        43.63428        -0.99339
C         35.41086        28.06661        -2.33951
C         35.06501        29.48235        -2.06887
C         34.11057        29.59927        -0.86326
C         35.19587        31.92789        -0.34673
C         33.95255        31.08290        -0.39567
C         35.27967        33.08408         0.58010
C         34.07682        33.58970         1.23967
C         35.23597        35.87440         1.34489
C         34.03231        35.09118         1.59228
C         35.17256        37.34593         1.59743
C         33.85728        38.18089         1.71384
C         35.07172        40.07364         0.38805
C         33.76496        39.16148         0.47002
C         35.07753        41.56903         0.13755
C         33.90058        42.07596        -0.63320
C         35.45874        43.74579        -1.77216
C         34.06022        43.19971        -1.66759
C         35.79938        44.70697        -2.78980
C         37.78969        27.92636        -2.25901
C         36.42334        27.37541        -2.27365
C         37.76749        29.32367        -1.67680
C         36.50056        30.11818        -1.72620
C         37.76257        31.86644        -0.30374
C         36.49554        31.38304        -0.89250
C         37.73855        33.17770         0.32237
C         36.47340        33.79041         0.70972
C         37.69452        35.90148         1.02532
C         36.44361        35.19534         1.08987
C         37.63927        37.38575         0.75328
C         36.42520        38.08968         1.31117
C         37.62236        40.31824         0.96670
C         36.37715        39.50284         0.83222
C         37.69913        41.55403         0.40844
C         36.44260        42.36705         0.11188
C         37.95803        43.78211        -1.46710
C         36.58551        43.25166        -1.14447
C         38.15258        44.94332        -2.47146
C         36.84158        45.36869        -2.94916
C         40.37818        25.09912        -2.50978
C         39.32050        25.73929        -2.48570
C         40.35886        27.84348        -1.89003
C         39.05931        27.17683        -2.37289
C         40.05788        28.89573        -0.79933
C         38.91733        29.86318        -1.13155
C         40.32756        31.78827        -0.31618
C         38.94052        31.18021        -0.52699
C         40.28350        33.30461         0.10532
C         38.93207        33.84628         0.52813
C         40.19765        35.93278         0.99199
C         38.90897        35.22302         0.93929
C         40.07417        37.39008         0.64681
C         38.88238        38.04802         1.38328
C         40.16176        40.34778         1.38126
C         38.85604        39.58560         1.39527
C         40.12600        41.87395         1.14946
C         39.07628        42.13547         0.03420
C         40.48777        44.11033        -0.76481
C         39.01024        43.63200        -0.36889
C         40.49363        45.50125        -1.42915
C         39.33618        45.85283        -2.36505
C         40.09304        48.16738        -2.10999
C         39.26931        47.31429        -2.44622
C         42.98295        25.05822        -2.12035
C         41.59595        25.48816        -1.74682
C         42.93743        27.87622        -1.32909
C         41.66288        27.10005        -1.84086
C         42.65329        28.74646        -0.09120
C         41.31377        29.44813        -0.03529
C         42.52767        31.50525         1.08397
C         41.28007        30.88103         0.49781
C         42.60987        33.01989         1.22742
C         41.27434        33.75198         1.22014
C         42.65752        36.03877         0.67786
C         41.38880        35.27976         1.07138
C         42.76559        37.42366         1.28211
C         41.54881        38.23863         1.53562
C         42.91429        40.48856         1.55677
C         41.31125        39.51926         0.88384
C         42.69711        41.85643         0.91094
C         41.50422        42.50391         0.84769
C         42.73170        44.72794         0.33758
C         41.38990        43.99893         0.53257
C         42.70101        46.03294        -0.38572
C         41.39746        46.53408        -0.90073
C         42.61490        48.41099        -1.72386
C         41.25153        48.07231        -1.15476
C         43.99524        25.63626        -1.71715
C         45.39032        27.43073        -0.41791
C         44.26277        26.99736        -1.27684
C         45.20209        28.64097         0.49349
C         43.86571        29.31353         0.64427
C         45.10881        31.49426         0.89605
C         43.84283        30.72804         1.32393
C         45.15650        32.98517         0.79460
C         43.90700        33.76144         1.10711
C         45.29485        35.93471         1.06412
C         43.97519        35.24222         0.81161
C         45.33282        37.41016         1.38021
C         44.04036        38.15980         1.41623
C         45.31727        40.42608         1.21190
C         44.03453        39.59749         0.89237
C         45.29472        41.76189         0.46280
C         43.98302        42.49726         0.44510
C         45.35082        44.68904         0.22610
C         44.04146        43.99127         0.47643
C         45.24427        46.25708        -0.12780
C         44.04786        46.47503        -1.08117
C         43.69889        47.86571        -1.48915
C         47.43317        27.13624         0.89116
C         46.55149        26.71666         0.13431
C         47.65121        28.55486         1.21574
C         46.43189        29.32188         0.97051
C         47.73948        31.49854         0.80576
C         46.42456        30.77232         1.10684
C         47.67352        32.97715         0.33803
C         46.49506        33.67403         1.01511
C         47.90999        35.94682         1.18962
C         46.57361        35.14750         1.26775
C         47.78958        37.34246         0.54615
C         46.55846        38.13248         0.87625
C         47.93599        40.33061         0.82761
C         46.63686        39.62557         1.07804
C         47.87620        41.68198         0.09042
C         46.58524        42.50756         0.26851
C         47.87941        44.42083        -0.67311
C         46.56862        43.83076        -0.06834
C         47.60868        45.87106        -0.83638
C         46.56544        46.50497        -0.77280
C         50.27317        28.62227         0.54709
C         49.00265        29.25112         0.92185
C         50.27078        31.41494         0.28367
C         48.90933        30.65676         0.26621
C         50.11081        32.85892        -0.32762
C         49.05628        33.58852         0.66273
C         50.29874        35.81064        -0.03049
C         49.13605        35.12762         0.64292
C         50.27365        37.31453        -0.24395
C         49.06635        38.09281         0.16712
C         50.39114        40.28915         0.05439
C         49.26488        39.51301         0.71468
C         50.44239        41.74267         0.31489
C         49.14283        42.50908         0.40331
C         50.38005        44.49724        -0.18733
C         49.02385        44.07024         0.27951
C         51.28121        29.22146         0.14339
C         52.62167        31.42735        -0.58640
C         51.58891        30.65207         0.11994
C         52.47470        32.67075        -0.66311
C         51.46009        33.64185        -0.49173
C         52.41633        35.92606        -1.07201
C         51.41087        34.99184        -0.67425
C         52.54981        37.16058        -1.08153
C         51.62259        38.03753        -0.33320
C         52.62531        40.44720        -0.84479
C         51.61478        39.54090        -0.30035
C         52.65097        41.68112        -0.86762
C         52.04071        42.66111         0.03822
C         51.44689        43.93207        -0.40664
O         43.36962        33.43501         2.42272
O         40.75717        34.05589        -1.10623
O         38.51363        27.86443        -3.52125
O         44.84306        35.60591        -0.29890
O         41.25812        27.81919        -3.03656
O         44.30450        28.31424         1.61663
O         39.51838        40.03349         2.63381
O         42.77907        45.99222         1.07930
O         50.31343        35.52467         1.41283
O         34.26941        34.07076         2.61657
O         36.11123        37.76482         2.68245
O         34.18747        32.08904        -1.41441
O         49.36210        37.86114        -1.23938
O         47.47273        40.14164         2.17273
O         49.82934        42.09359         1.61955
O         35.97040        39.50454        -0.59872
O         41.41596        31.00315         1.92015
O         51.15752        31.24820         1.38905
O         40.55422        45.34861        -2.94950
O         46.80205        37.60939        -0.47782
O         32.23325        40.12753        -1.17998
O         38.46005        43.56678        -2.82038
O         34.10922        42.42434         0.79183
O         45.03008        32.15304        -0.40824
O         44.86994        44.47067         1.58721
O         42.75829        40.40396         2.79486
O         36.60327        31.41336        -2.36896
O         47.31328        31.30598         2.15201
O         45.39729        27.70645        -1.82862
O         41.68826        28.39792         0.92215
O         40.16312        37.59015        -0.64862
O         44.50460        41.87386        -0.78180
O         31.25382        39.19621         2.31556
O         46.61864        34.19064         2.36694
O         52.09916        38.68168         0.83199
O         44.81508        37.86067         2.66157
O         32.99528        31.48888         1.88851
O         49.67794        32.74374        -1.60223
O         48.54465        29.04781         2.23750
O         48.21166        36.26815         2.55503
H         48.19992        35.43338         3.07469
O         45.11541        47.01016         1.04487
H         44.95491        46.39955         1.80112
O         48.61358        30.42588        -1.11625
H         48.89539        31.25311        -1.62430
O         39.37101        28.04380         0.17009
H         40.04635        27.64752         0.77204
O         42.47868        36.29356        -0.74848
H         43.36954        36.49190        -1.12527
O         38.52271        44.46462         0.67400
H         38.79619        44.09202         1.54711
O         41.46584        39.62025        -0.44590
H         41.35443        38.71920        -0.88183
O         41.08987        43.20286        -1.68433
H         40.79555        43.45555        -2.59237
O         49.34644        33.20235         2.00136
H         50.10980        33.73655         2.31866
O         43.24322        28.90720        -2.27465
H         43.27337        28.52622        -3.17879
O         39.58897        42.48307         2.32580
H         40.16704        42.27013         3.08846
O         40.63796        33.46545         2.47468
H         41.33066        33.43212         3.16940
O         45.23054        40.83596         2.58208
H         45.20540        40.03734         3.15459
O         48.14088        43.82511        -1.94634
H         47.58870        44.27097        -2.62276
O         47.42190        33.11014        -1.05359
H         46.57220        32.66682        -1.28431
O         33.79392        38.24473        -0.62611
H         33.58668        38.74380        -1.45074
O         41.39942        25.21434        -0.38022
H         41.27839        24.25067        -0.25284
O         49.74224        39.29331         2.05711
H         49.78015        40.16419         2.51384
O         39.71990        34.92996        -1.61536
H         40.09126        35.84399        -1.43160
O         52.70893        42.75524         1.22574
H         52.40304        43.52923         1.73787
O         48.70808        44.59204         1.54777
H         49.30175        44.18719         2.21530
O         40.95738        31.68579        -1.61628
H         40.68018        32.46795        -2.15113
O         36.38176        43.26729         1.23271
H         35.44422        43.55546         1.34149
O         40.77997        44.61230         1.66552
H         41.22231        45.48600         1.80718
O         43.98288        30.54721         2.72746
H         43.15295        30.15075         3.07037
O         33.75087        42.63847        -2.93220
H         33.93286        43.30634        -3.62713
O         31.89913        34.64988         3.60073
H         32.67718        34.04788         3.66816
O         37.57752        37.52880        -0.66423
H         38.49498        37.47726        -1.03987
O         41.04082        48.74707         0.04818
H         41.16741        49.70822        -0.08338
O         43.90618        39.38566        -0.51046
H         43.91076        40.25707        -0.98270
O         44.26044        45.64027        -2.21108
H         43.62371        45.88408        -2.91627
O         47.94509        41.25591        -1.28567
H         47.97643        42.06285        -1.86127
O         38.87200        37.57296         2.73454
H         39.19621        38.29736         3.31938
O         34.65335        28.83992         0.20068
H         33.98890        28.74952         0.91536
O         33.93070        39.01510         2.86683
H         34.63040        38.66132         3.46436
O         41.31546        38.30605         2.90379
H         41.89438        37.67415         3.37682
O         39.48077        41.35123        -1.09934
H         39.03893        41.68274        -1.91031
O         32.32056        35.67679         0.07665
H         32.72039        36.44714        -0.39377
O         34.51739        30.12232        -3.19110
H         35.01586        30.95725        -3.35206
