         344
 CSIRO Nanostructure Databank - Neutral Graphene Oxide Data Set
C          1.32773         3.43301        -0.62242
C          0.13623         4.09125        -0.30788
C          1.26081         6.24337        -0.47405
C          0.09579         5.48271        -0.25118
C          1.23878         7.71228        -0.46348
C          0.05085         8.42248        -0.57772
C          1.20225        10.56562        -0.40171
C          0.04329         9.83634        -0.59078
C          1.18166        12.07256        -0.51717
C         -0.03827        12.73164         0.07908
C          1.17003        14.85281         0.28389
C         -0.03698        14.05274         0.37031
C          1.14754        16.27301         0.43859
C         -0.06396        17.02098         0.53653
C          1.15820        19.14413         0.59380
C         -0.05558        18.39661         0.60402
C          1.16148        20.59744         0.57235
C         -0.03942        21.36466         0.80051
C          1.04297        23.50175         0.21852
C         -0.07537        22.72935         0.75797
C          1.11233        25.01981         0.45645
C         -0.05336        25.86055        -0.05090
C          1.29907        27.91826         0.33597
C          0.04285        27.20141        -0.12037
C          1.32310        29.43777         0.19730
C          3.75171         3.48181        -1.33574
C          2.50054         4.16829        -0.83946
C          3.75997         6.33273        -0.95118
C          2.47337         5.57062        -0.73209
C          3.71311         7.75127        -0.41762
C          2.47645         8.43267        -0.33730
C          3.63982        10.58604         0.03038
C          2.45104         9.87791        -0.21546
C          3.65274        12.02459         0.10489
C          2.44316        12.74630        -0.03818
C          3.64361        14.88224         0.23684
C          2.41091        14.15688         0.15061
C          3.60228        16.28577         0.31777
C          2.37885        17.00339         0.44190
C          3.63942        19.15761         0.59472
C          2.38279        18.43609         0.52781
C          3.64149        20.60716         0.56415
C          2.38098        21.28143         0.43808
C          3.65716        23.44036         0.21088
C          2.37778        22.71696         0.13367
C          3.63272        24.90559         0.27399
C          2.38526        25.61183        -0.20753
C          3.70277        27.65184        -0.47551
C          2.50601        27.11493        -0.08009
C          3.76061        29.82696        -0.03914
C          2.39238        30.27123         0.26668
C          6.22939         3.54979        -1.06244
C          5.02952         4.15793        -0.89463
C          6.22682         6.33488        -0.46478
C          4.93506         5.55835        -0.33391
C          6.16994         7.76081        -0.23919
C          4.92676         8.42170        -0.14252
C          6.14212        10.57282         0.41592
C          4.85192         9.80412         0.46996
C          6.12689        12.00613         0.52959
C          4.87256        12.72306         0.36642
C          6.09909        14.84690         0.57179
C          4.89407        14.15429         0.35247
C          6.17334        16.27265         0.32588
C          4.84605        17.04364         0.18561
C          6.12369        19.13339         0.75818
C          4.84632        18.46677         0.52198
C          6.13419        20.65713         0.74388
C          4.85124        21.32867         0.50167
C          6.14410        23.45677         0.27213
C          4.86550        22.75673         0.33884
C          6.18117        24.85396         0.15537
C          4.94530        25.63266         0.22880
C          6.14947        27.78041        -0.02992
C          4.97854        27.04751        -0.19747
C          6.19081        29.24712         0.16829
C          4.98177        30.04477         0.51157
C          8.70359         3.61381        -1.02587
C          7.48652         4.25315        -0.86346
C          8.69769         6.48863        -0.81006
C          7.42908         5.68223        -0.63503
C          8.63211         7.81621        -0.10367
C          7.40046         8.47317         0.01226
C          8.59482        10.54045         0.62268
C          7.36762         9.86929         0.37990
C          8.55839        11.94230         1.14978
C          7.31236        12.69440         0.79220
C          8.59557        14.84272         0.70688
C          7.31466        14.15899         1.11967
C          8.62623        16.26755         0.57211
C          7.40088        17.01955         0.62325
C          8.61257        19.16175         0.50369
C          7.41094        18.42669         0.57971
C          8.62140        20.58359         0.32675
C          7.40472        21.32472         0.40634
C          8.61115        23.42121         0.00710
C          7.38332        22.72530         0.21664
C          8.61407        24.84491        -0.07232
C          7.39344        25.57734         0.00788
C          8.63079        27.68455         0.03270
C          7.39949        27.01978         0.04200
C          8.71219        29.13676         0.41214
C          7.40190        29.86436         0.30896
C         11.15137         3.74032        -1.29661
C          9.95262         4.31594        -0.89048
C         10.98145         6.31514         0.20033
C          9.91464         5.69264        -0.42393
C         11.09133         7.77119         0.22438
C          9.85072         8.47950         0.20557
C         11.07862        10.54406         0.74343
C          9.82801         9.86754         0.52893
C         11.02594        11.97536         0.90030
C          9.84064        12.67792         0.86518
C         11.01839        14.77827         0.32943
C          9.82957        14.12311         0.65766
C         10.99081        16.20308        -0.16935
C          9.82456        16.96253         0.36933
C         11.09925        19.11654         0.02950
C          9.92086        18.43213         0.67377
C         11.07097        20.50465        -0.20363
C          9.84606        21.25722        -0.00609
C         11.03072        23.40019        -0.42481
C          9.83815        22.68720        -0.13983
C         11.04707        24.81795        -0.45439
C          9.83778        25.54842        -0.24427
C         11.05487        27.67553        -0.48195
C          9.84496        26.97103        -0.20242
C         11.03994        29.13900        -0.51446
C          9.89304        29.83351        -0.19640
C         13.57866         3.74994        -1.18911
C         12.40203         4.44899        -1.36226
C         13.64906         6.65833        -0.90541
C         12.49696         5.94507        -1.61124
C         13.59452         7.81238        -0.14080
C         12.33368         8.46771         0.25739
C         13.55644        10.63343         0.77919
C         12.31214         9.87220         0.58079
C         13.54529        11.98496         1.04693
C         12.26926        12.76750         1.16760
C         13.49866        14.92533         0.57574
C         12.31277        13.99812         0.23763
C         13.54343        16.14180        -0.37698
C         12.29541        16.96561        -0.11803
C         13.48281        19.04045        -0.81550
C         12.28968        18.34178        -0.19235
C         13.51968        20.53797        -0.56636
C         12.29777        21.20439        -0.52763
C         13.52810        23.41627        -0.68801
C         12.24459        22.65976        -0.91851
C         13.51585        24.82570        -0.77550
C         12.25475        25.54569        -0.71423
C         13.44578        27.67538        -1.29451
C         12.22839        26.95616        -0.77285
C         13.46691        29.15549        -0.99249
C         12.26745        29.83228        -0.78512
C         15.87313         3.69497        -0.38101
C         14.83577         4.40568        -0.94759
C         15.94320         6.29359         1.02880
C         14.90252         5.88165        -1.24632
C         15.96466         7.66557         0.84805
C         14.91165         8.53282         0.17494
C         16.01083        10.58558         1.05422
C         14.81891         9.91963         0.79744
C         16.07564        12.02561         1.08520
C         14.79743        12.78181         1.33176
C         15.98535        14.83349         0.51256
C         14.80321        14.16224         0.68794
C         15.96762        16.26975         0.19769
C         14.82399        16.91249        -0.16712
C         16.06882        19.12741        -0.42258
C         14.81784        18.33266        -0.59923
C         16.00411        20.60074        -0.34368
C         14.76400        21.26068        -0.48523
C         15.94812        23.44491        -0.34849
C         14.74775        22.71888        -0.49646
C         15.97507        24.84861        -0.57702
C         14.74268        25.54702        -0.80686
C         15.93301        27.68437        -1.01318
C         14.74755        26.97671        -0.96821
C         15.93792        29.13623        -1.06103
C         14.69940        29.83316        -1.02742
C         18.30020         3.49537         0.02513
C         17.09873         4.25755         0.17542
C         18.48308         6.14336         1.14984
C         17.14665         5.51506         0.79547
C         18.52914         7.62203         0.86050
C         17.26239         8.34365         1.08132
C         18.59114        10.51628         1.12282
C         17.27205         9.81551         1.23482
C         18.57208        12.02149         0.97096
C         17.26449        12.72404         0.91408
C         18.47357        14.80558         0.35370
C         17.27388        14.14285         0.62606
C         18.46289        16.26196        -0.07879
C         17.25388        17.00268         0.49105
C         18.46426        19.15357         0.12158
C         17.27913        18.44977         0.06332
C         18.44533        20.60517         0.01738
C         17.22062        21.29085        -0.11139
C         18.46990        23.47615        -0.15349
C         17.18252        22.76642         0.18011
C         18.45445        24.87662        -0.40873
C         17.21176        25.55383        -0.60560
C         18.45686        27.73162        -0.80529
C         17.23491        26.94272        -1.18235
C         18.40393        29.14996        -0.82081
C         17.15447        29.82647        -1.00478
C         19.55156         4.06630         0.22146
C         20.88975         6.13013         0.45560
C         19.67467         5.41515         0.59676
C         20.93163         7.50923         0.51870
C         19.72775         8.29046         0.66610
C         20.87931        10.47624         0.24608
C         19.76951         9.75882         0.64255
C         20.88920        11.89957         0.16015
C         19.77704        12.67436         0.43063
C         20.91991        14.86357         0.18128
C         19.73973        14.11939         0.29118
C         20.92650        16.27443         0.24331
C         19.75069        17.00939         0.23253
C         20.88129        19.21524         0.49070
C         19.72467        18.44884         0.31654
C         20.85494        20.61666         0.40910
C         19.68024        21.32581         0.14232
C         20.89483        23.49283        -0.24158
C         19.68733        22.77576        -0.06745
C         20.89139        24.87221        -0.41776
C         19.68994        25.59699        -0.48764
C         20.83640        27.82636        -0.32875
C         19.67225        27.06076        -0.56142
C         20.79135        29.22206        -0.35917
C         19.59249        29.88602        -0.59851
O          5.62548        16.68960        -0.99267
O         15.68643        18.56897        -1.77477
O          6.14445        19.91368         2.01371
O          3.73387        28.90400        -1.09500
O         15.86258         6.35090        -1.84901
O         18.84540        11.38123         2.27431
O         11.87290         6.50349        -2.49204
O          4.20099        25.45933         1.51039
O         17.22951         8.96654         2.46000
O          1.53190        23.02134        -1.06418
O          4.62965         9.54935         1.92139
H          3.89271         8.90390         1.98816
O          8.53612        11.83156         2.63735
H          8.17635        12.69851         2.96261
O         17.05973        22.85998         1.65870
H         17.04470        23.81416         1.88673
O         10.20811        18.49156         2.14055
H          9.38365        18.23547         2.60839
O         17.42076        16.97874         1.93764
H         16.57445        17.24073         2.35615
O         12.45941        13.43170        -1.08177
H         12.80131        14.12461        -1.69400
O         17.34839        26.73426        -2.65567
H         16.60057        26.15562        -2.91993
O         14.82072        13.03401         2.78736
H         13.89152        13.00383         3.11540
O         12.07637        22.62619        -2.39406
H         12.03837        23.55737        -2.70242
O         15.50667         8.88225        -1.11882
H         15.69424         8.04782        -1.62604
O          3.72803         3.53465        -2.78088
H          3.84190         4.48430        -3.02454
O          4.01307         6.39708        -2.39012
H          3.32360         6.96967        -2.78841
O         11.89119         5.57618         0.90611
H         12.59815         6.14976         1.27146
O          7.24802        14.26448         2.63629
H          6.33688        14.00541         2.89714
O          4.63177         5.44507         1.08742
H          5.38766         4.99684         1.52114
O         13.33641        27.57817        -2.76396
H         14.06271        28.11847        -3.14283
O         12.14404        13.21556         2.56851
H         11.21585        13.06929         2.85642
O         18.58162         6.06156         2.63085
H         18.18903         6.88560         2.99850
O         14.76431         5.66351         1.34280
H         14.93217         4.70726         1.47394
O          1.28836        27.81053         1.82614
H          2.16120        28.12250         2.14980
O         10.72433        16.07227        -1.63161
H         11.54704        15.70524        -2.03358
O          2.29989        25.43532        -1.64668
H          2.03997        24.49571        -1.82762
O         13.24389        15.55213         1.85904
H         13.04434        14.83895         2.51117
O         13.52380        15.75148        -1.78713
H         13.65359        16.57907        -2.30722
O          1.19756        25.12386         1.88799
H          1.19272        26.08828         2.12298
O          8.99323        29.12962         1.87679
H          8.27220        28.61872         2.30377
O         13.20675        18.89527        -2.25008
H         14.03477        19.16513        -2.71294
O          1.10977        12.33517        -1.97153
H          1.15640        13.30804        -2.09082
O         18.31894        16.27351        -1.52660
H         19.10972        15.84079        -1.91089
O          8.79051         6.79494        -2.24071
H          7.97544         7.27553        -2.49673
H          1.34897         2.33664        -0.70320
H         -0.77885         3.51087        -0.12492
H         -0.85418         5.98357        -0.01918
H         -0.90308         7.89173        -0.69997
H         -0.91352        10.35061        -0.75533
H         -0.97111        12.15711         0.17361
H         -0.96419        14.52644         0.72380
H         -1.03011        16.49828         0.52923
H         -1.01709        18.92608         0.64728
H         -0.93490        20.83323         1.15325
H         -0.94723        23.27206         1.15096
H         -0.98227        25.35948        -0.36684
H         -0.80675        27.79982        -0.48513
H          0.33479        29.89364         0.38037
H          3.74904         2.40038        -1.04627
H          2.21202        31.34404         0.44843
H          6.27245         2.51365        -1.43349
H          5.10733        30.81302         1.28957
H          8.72306         2.54936        -1.30515
H          7.42328        30.93328         0.57373
H         11.17171         2.66034        -1.51681
H          9.90354        30.93413        -0.20401
H         13.53944         2.65687        -1.05236
H         12.27928        30.92923        -0.68855
H         15.77077         2.59674        -0.33660
H         14.71114        30.92916        -0.92329
H         18.22467         2.47672        -0.38102
H         17.14717        30.92669        -1.01153
H         20.45550         3.49431        -0.03658
H         21.80692         5.57162         0.21401
H         21.89586         8.02041         0.39721
H         21.78823         9.94869        -0.07577
H         21.81083        12.37451        -0.20495
H         21.88780        14.34448         0.16382
H         21.89963        16.77799         0.33404
H         21.84940        18.72514         0.66265
H         21.80309        21.15619         0.53933
H         21.85828        22.96615        -0.22151
H         21.85425        25.39163        -0.51686
H         21.79324        27.33002        -0.11793
H         21.71056        29.79805        -0.18253
H         19.55810        30.98480        -0.60966
