         666
 CSIRO Nanostructure Databank - Neutral Graphene Oxide Data Set
C          6.14624        31.93938         1.24034
C          6.16092        33.21386         1.65551
C          8.55420        27.51925         1.19069
C          8.53081        28.95225         1.14393
C          7.35737        29.68060         1.11264
C          8.60885        31.73877         1.68941
C          7.41028        31.18014         0.90760
C          8.66539        33.23982         1.61744
C          7.42272        33.94730         2.08539
C          8.58878        36.09806         1.43420
C          7.42262        35.40982         1.75945
C          8.60787        37.52404         1.41337
C         10.54965        22.98519         0.70615
C         10.36460        24.36429         0.43523
C          9.58257        25.32147         1.09471
C         10.95570        27.47554         0.64887
C          9.69602        26.75961         0.91792
C         11.01278        28.89975         0.81487
C          9.81970        29.64918         1.07013
C         11.05936        31.77722         1.03827
C          9.85711        31.03373         1.23523
C         11.02884        33.19223         0.97393
C          9.81962        33.92259         1.24854
C         11.00146        36.08765         0.86756
C          9.82172        35.37528         1.17318
C         11.01679        37.52484         0.83259
C          9.79955        38.25858         1.19733
C         11.17861        40.35805         1.27511
C          9.86567        39.63271         1.41808
C         11.03864        41.83151         1.01252
C         13.30566        18.92168        -0.02235
C         13.27860        20.30946        -0.06027
C         12.04846        20.94749         0.42119
C         13.42689        23.31699        -0.54427
C         11.56786        22.20458         0.07117
C         13.43670        24.70595        -0.14737
C         12.25615        25.47487        -0.08701
C         13.46047        27.48631         0.68606
C         12.18213        26.78897         0.41692
C         13.51547        28.94975         0.62346
C         12.25636        29.63585         0.75537
C         13.54632        31.76532         1.01720
C         12.27008        31.03727         0.86457
C         13.52445        33.24931         0.84107
C         12.22794        33.90837         0.41689
C         13.42204        36.11900         0.47323
C         12.23802        35.40551         0.63232
C         13.41555        37.54798         0.26981
C         12.16340        38.21761         0.44054
C         13.25807        40.43160        -0.21275
C         11.97347        39.69394         0.14940
C         13.32925        41.88568         0.07215
C         12.11033        42.55949         0.52057
C         13.27218        44.71821         0.34414
C         12.08679        43.98971         0.48805
C         13.30052        46.13949         0.37726
C         15.73092        14.54465        -0.65281
C         15.68752        15.96204        -0.62145
C         14.52234        16.68423        -0.38751
C         15.79454        18.92331        -0.49357
C         14.53475        18.14010        -0.16286
C         15.72113        20.38301        -0.68859
C         14.50134        21.04663        -0.43643
C         15.87158        23.11671        -0.12644
C         14.52650        22.49985        -0.40688
C         15.86949        24.62229        -0.17350
C         14.69486        25.31517         0.10281
C         15.93928        27.49762         0.05862
C         14.76212        26.73224         0.48435
C         15.92939        28.91120         0.09406
C         14.74685        29.60677         0.48827
C         15.94276        31.83679         0.16165
C         14.88972        31.04916         0.91529
C         15.95265        33.23984         0.19003
C         14.76845        33.95032         0.50426
C         15.97808        36.16766         0.18016
C         14.71882        35.40935         0.52984
C         15.86848        37.60103        -0.17689
C         14.60582        38.24372        -0.11336
C         15.83970        40.43838        -0.81028
C         14.53341        39.68787        -0.47709
C         15.80620        42.01086        -0.60615
C         14.51151        42.58213        -0.03920
C         15.73791        44.69015         0.35988
C         14.52391        44.00520         0.21163
C         15.76496        46.11721         0.52820
C         14.51305        46.84651         0.42861
C         15.74542        48.98095         0.56608
C         14.54242        48.26075         0.42245
C         15.75979        50.37854         0.50227
C         18.20040        10.27125        -0.63648
C         18.20003        11.65837        -0.65312
C         16.99124        12.41741        -0.79415
C         18.19692        14.56784        -0.75884
C         16.95785        13.82943        -0.76000
C         18.22151        15.95695        -0.87298
C         16.93461        16.68311        -1.01843
C         18.21492        18.92616        -1.19764
C         16.94312        18.17913        -1.09548
C         18.19713        20.30432        -1.32424
C         16.94469        21.07881        -1.10767
C         17.89088        23.38083        -1.55286
C         16.91405        22.48703        -1.03672
C         18.13715        24.68442        -1.12129
C         17.03937        25.36906        -0.47731
C         18.11566        27.49526        -1.19631
C         17.02499        26.77534        -0.46484
C         18.20399        28.96217        -0.84889
C         17.11249        29.63211        -0.36885
C         18.34020        31.84014        -0.66549
C         17.00784        31.11944        -0.62101
C         18.32927        33.27500        -0.57435
C         17.15867        33.97600        -0.22892
C         18.34816        36.14446        -0.47210
C         17.15200        35.40139        -0.25449
C         18.33640        37.58036        -0.35294
C         17.08414        38.30440        -0.34864
C         18.26298        40.44161        -0.09901
C         17.08877        39.74743        -0.30375
C         18.26243        41.85485         0.23823
C         17.01297        42.58374         0.14727
C         18.12784        44.62096         1.04891
C         16.96136        43.92469         0.47792
C         18.19171        46.08867         0.98250
C         16.96872        46.80772         0.75815
C         18.16512        48.93325         1.07702
C         16.99873        48.25921         0.80505
C         18.21521        50.43487         1.17295
C         16.95904        51.12314         0.69041
C         18.27103        53.25482         0.64304
C         16.99229        52.47818         0.51003
C         18.13961        54.56329        -0.16173
C         20.75074         6.13647        -1.65775
C         20.71809         7.51458        -1.02920
C         19.52283         8.12686        -0.85423
C         20.69368        10.24977        -0.25517
C         19.40139         9.47259        -0.19882
C         20.61698        11.68297        -0.13729
C         19.45061        12.37005        -0.41563
C         20.47758        14.63070         0.17402
C         19.52379        13.84610        -0.73773
C         20.62736        16.03867        -0.37983
C         19.44762        16.69497        -0.81768
C         20.73480        18.85506        -1.01959
C         19.47531        18.09770        -1.43081
C         20.67580        20.33041        -0.88604
C         19.51317        20.98598        -1.35355
C         20.77769        23.13190        -1.30422
C         19.70601        22.32497        -1.72852
C         20.71532        24.62453        -1.36021
C         19.41263        25.37649        -1.26915
C         20.61329        27.52113        -0.70730
C         19.42076        26.74520        -1.10125
C         20.70026        28.96272        -0.95413
C         19.42942        29.67703        -1.38151
C         20.77449        31.81772        -1.22503
C         19.47343        31.13677        -1.01711
C         20.79347        33.31596        -1.28107
C         19.46042        34.06522        -1.21939
C         20.79611        36.13467        -0.47664
C         19.56776        35.46685        -0.68502
C         20.79049        37.54797        -0.23258
C         19.55819        38.26175        -0.30823
C         20.73720        40.31371         0.42147
C         19.58019        39.76435        -0.37753
C         20.68594        41.72673         0.89574
C         19.42795        42.47134         0.69266
C         20.70226        44.61422         1.23764
C         19.43319        43.85717         1.17317
C         20.64199        46.00582         1.32007
C         19.40506        46.73203         1.20715
C         20.68743        48.88478         0.95158
C         19.43111        48.21894         1.47831
C         20.67557        50.24439         0.50880
C         19.45462        51.00638         0.50496
C         20.64925        53.04585        -0.11900
C         19.48258        52.41082         0.26552
C         20.73742        54.56325        -0.07709
C         19.45025        55.20420        -0.54842
C         20.63922        57.00469        -1.75164
C         19.43175        56.32852        -1.30417
C         20.58514        58.20455        -2.45894
C         23.35993         3.38701        -1.83367
C         22.14415         4.07194        -1.88756
C         23.24707         6.11072        -1.13626
C         22.07548         5.42498        -1.53742
C         23.18040         7.52901        -0.81155
C         21.97634         8.19680        -0.71739
C         23.17436        10.34564        -0.19507
C         21.92270         9.61566        -0.38581
C         23.16310        11.73074         0.11928
C         21.85253        12.40891         0.24167
C         23.09339        14.61670         0.28266
C         21.80879        13.89585         0.37894
C         23.09387        15.97054         0.05297
C         21.87130        16.67248        -0.26158
C         23.00276        18.90071         0.19536
C         21.91638        18.13069        -0.48849
C         23.00082        20.38019         0.02540
C         21.83967        21.06346        -0.58442
C         23.10226        23.20891        -0.38869
C         21.89714        22.47061        -0.75547
C         23.10411        24.57861        -0.33495
C         21.93394        25.33679        -0.80806
C         23.15858        27.47806        -0.40069
C         21.85787        26.76731        -0.36179
C         23.16878        28.89213        -0.66129
C         21.94266        29.62099        -0.83925
C         23.23336        31.72195        -0.79409
C         22.02105        31.06221        -0.94183
C         23.31514        33.20329        -0.75691
C         22.07989        34.03201        -0.95348
C         23.17890        36.01856         0.11338
C         22.03306        35.41482        -0.40928
C         23.15749        37.42626         0.38035
C         22.02226        38.18927         0.09944
C         23.14435        40.25195         1.09046
C         22.09147        39.70735         0.11525
C         23.17522        41.76542         1.07136
C         21.96584        42.46455         1.08084
C         23.19256        44.56872         1.33790
C         21.95935        43.89033         1.21744
C         23.20054        46.01520         1.62118
C         21.88518        46.77846         1.56373
C         23.13909        48.88091         0.96856
C         21.91254        48.21398         1.14575
C         23.15671        50.22812         0.46655
C         21.90293        50.86561         0.16274
C         23.15712        53.02031        -0.15760
C         21.86873        52.23460        -0.47959
C         23.11044        54.38234        -0.80229
C         21.95861        55.10817        -0.78765
C         23.07815        57.03390        -1.89177
C         21.90301        56.40552        -1.46424
C         23.03436        58.24237        -2.62739
C         21.77002        58.84049        -2.91652
C         22.92053        60.64251        -4.08741
C         21.74147        60.06041        -3.64955
C         24.51431         4.05067        -1.41274
C         25.76275         6.05860        -0.59433
C         24.47499         5.40413        -1.05834
C         25.51181         7.41159         0.09832
C         24.50234         8.24688        -0.69381
C         25.59059        10.31543         0.22044
C         24.40646         9.66050        -0.17660
C         25.58656        11.71943         0.44657
C         24.35515        12.42522         0.38601
C         25.63969        14.59876         0.43976
C         24.33523        13.89590         0.77167
C         25.67244        15.96681         0.17639
C         24.36121        16.73028         0.39455
C         25.32286        18.98914        -0.34869
C         24.29345        18.18832         0.01727
C         25.52608        20.31829         0.34699
C         24.28291        21.11321         0.04939
C         25.57860        23.14710         0.24355
C         24.31158        22.45576        -0.10318
C         25.50613        24.60694         0.52561
C         24.17938        25.36682         0.40550
C         25.64668        27.30572        -0.57241
C         24.30604        26.76938        -0.14528
C         25.65615        28.82930        -0.65746
C         24.43182        29.56352        -0.66553
C         25.69180        31.66660        -0.42193
C         24.46005        30.98854        -0.64649
C         25.68447        33.09695        -0.09295
C         24.49671        33.81311        -0.10779
C         25.66910        35.87370         0.75598
C         24.33016        35.14344         0.61156
C         25.68077        37.36600         0.88366
C         24.38682        38.12446         0.85019
C         25.66500        40.26454         0.86832
C         24.46079        39.59765         0.80217
C         25.66517        41.73725         0.95971
C         24.42413        42.45375         1.07620
C         25.67383        44.61346         1.14475
C         24.43484        43.88236         1.18858
C         25.64570        46.06960         1.28711
C         24.46602        46.75814         1.44111
C         25.68403        49.01842         1.37397
C         24.35978        48.27107         1.63637
C         25.70992        50.24876         0.46587
C         24.38159        50.92003         0.29764
C         25.68205        52.95280        -0.54324
C         24.38526        52.16919        -0.54346
C         25.65067        54.24601        -1.25702
C         24.34499        54.96282        -1.38589
C         25.60815        56.99152        -2.18876
C         24.40015        56.47242        -1.44131
C         25.50981        58.18164        -2.89083
C         24.24961        58.84328        -3.10758
C         24.16669        60.04086        -3.83154
C         26.78823         8.18112         0.34672
C         28.05977        10.21592         0.96446
C         26.80953         9.53373         0.44048
C         28.05659        11.72532         0.85960
C         26.83259        12.42739         0.67659
C         28.09731        14.53978         0.75133
C         26.85816        13.85316         0.60530
C         28.13401        15.95441         0.62346
C         26.95740        16.62374         0.18388
C         28.17220        18.81120         0.29903
C         27.17715        17.97733        -0.19381
C         28.06679        20.27352         0.16450
C         26.88334        20.96732         0.09685
C         28.12591        23.14795         0.48305
C         26.89936        22.47635        -0.12726
C         28.09282        24.60660         0.81965
C         26.80439        25.37684         0.68436
C         28.14535        27.36232        -0.17024
C         26.80276        26.87688         0.39015
C         28.16340        28.77153        -0.68229
C         26.87472        29.52586        -0.60441
C         28.15684        31.56034         0.14219
C         26.88837        30.93019        -0.38672
C         28.16703        33.07676         0.05922
C         26.94641        33.74810         0.14934
C         28.15994        35.99830         0.15859
C         26.95726        35.19085         0.46386
C         28.13603        37.38624         0.25961
C         26.92568        38.11548         0.62649
C         28.17897        40.23095         0.70576
C         26.89860        39.50057         0.72503
C         28.14042        41.73037         0.79269
C         26.85614        42.46934         0.88041
C         28.15557        44.60918         0.75279
C         26.88792        43.90520         0.93201
C         28.16766        46.08595         0.69923
C         26.91600        46.82450         1.06207
C         28.29555        49.02427         1.14072
C         26.99141        48.28239         1.41815
C         28.23450        50.48667         0.79756
C         26.87678        51.23106         0.80772
C         28.12166        53.11256        -0.45314
C         26.86742        52.43897        -0.11221
C         28.10235        54.39592        -1.04325
C         26.89956        55.03617        -1.39201
C         26.84195        56.31332        -1.97140
C         29.25730        12.40818         1.03656
C         30.51651        14.56389         1.18852
C         29.32002        13.83472         1.00615
C         30.55369        15.98897         1.12612
C         29.33928        16.69510         0.83152
C         30.53639        18.85734         0.97756
C         29.35035        18.12981         0.77412
C         30.46571        20.36790         1.03825
C         29.40126        21.00145         0.08365
C         30.59838        23.17638         0.48992
C         29.32106        22.48272         0.40911
C         30.62898        24.55798         0.43747
C         29.43002        25.35675         0.89117
C         30.60957        27.39593         0.16224
C         29.40583        26.72837         0.25672
C         30.69268        28.78850        -0.24296
C         29.48561        29.51489        -0.85984
C         30.67183        31.63649        -0.06911
C         29.40686        30.92737        -0.37179
C         30.57963        33.09171        -0.49672
C         29.37347        33.81244        -0.08364
C         30.59022        35.95673        -0.22796
C         29.39451        35.26358        -0.09555
C         30.58969        37.43797        -0.53362
C         29.34370        38.15464        -0.01644
C         30.66967        40.22923        -0.07097
C         29.36400        39.50715         0.18792
C         30.62226        41.75207         0.15654
C         29.33415        42.49329         0.33794
C         30.60217        44.65160         0.26329
C         29.36118        43.95685         0.53885
C         30.62266        46.09345         0.33620
C         29.46974        46.78117         0.63962
C         30.68040        48.93954         0.22145
C         29.60496        48.22982         1.02678
C         30.57408        50.32042        -0.07830
C         29.41403        51.08464         0.11160
C         29.34138        52.41515        -0.34014
C         31.74603        16.73752         1.28873
C         32.98103        18.89666         1.25163
C         31.76493        18.15794         1.19648
C         33.02692        20.30399         1.01527
C         31.81013        21.03319         0.83780
C         33.08507        23.09630         0.50701
C         31.84843        22.41905         0.57512
C         33.12493        24.53331         0.06564
C         31.85842        25.29152         0.36319
C         33.09307        27.43680         0.75144
C         31.85070        26.66933         0.39490
C         33.14983        28.82605         0.15993
C         31.90488        29.45094        -0.21273
C         33.20879        31.65126        -0.50976
C         31.90687        30.89731        -0.55068
C         33.15821        33.10544        -0.37228
C         31.93321        33.83745        -0.55818
C         33.14699        36.02993        -0.54284
C         31.91416        35.25638        -0.03551
C         33.09933        37.42651        -0.00091
C         31.86490        38.08732        -0.00810
C         32.93132        39.88786         1.14992
C         31.79327        39.39141         0.50738
C         32.96973        42.08287         1.02390
C         31.84684        42.55457         0.38125
C         33.11251        44.65292         0.13048
C         31.82675        43.97034         0.15216
C         33.07298        46.07783        -0.04161
C         31.88453        46.79286         0.08488
C         31.82582        48.21411        -0.09199
C         34.26196        20.99996         0.94214
C         35.55173        23.11283         0.63605
C         34.31564        22.39471         0.69231
C         35.60478        24.53718         0.55887
C         34.37948        25.26771         0.45426
C         35.59006        27.37387         0.64906
C         34.38088        26.66617         0.55353
C         35.53835        28.86329         0.86603
C         34.34657        29.52123         0.20039
C         35.57451        31.65026         0.25767
C         34.43213        30.93694        -0.07229
C         35.50443        33.14364         0.48078
C         34.48129        33.82270        -0.42394
C         35.56555        35.98220         0.21326
C         34.41270        35.30543        -0.16870
C         35.54915        37.39776         0.42279
C         34.29337        38.08247         0.41687
C         35.40826        40.22702         1.40204
C         34.21207        39.38226         0.97714
C         35.39025        41.68345         0.84697
C         34.30653        42.56096         0.75306
C         34.31116        43.93152         0.27830
C         36.82180        25.26521         0.65170
C         38.05766        27.43558         0.74070
C         36.83684        26.67975         0.66666
C         38.07446        28.84335         0.70486
C         36.84006        29.57311         0.61746
C         38.05260        31.71582         0.57974
C         36.82424        30.96403         0.51566
C         38.04961        33.13326         0.54700
C         36.83013        33.86392         0.42768
C         38.04083        36.00875         0.57737
C         36.81842        35.25490         0.40394
C         37.99439        37.40383         0.71620
C         36.74939        38.13300         0.74595
C         36.69175        39.48977         1.07500
C         39.29123        29.59747         0.72839
C         40.51644        31.75769         0.75769
C         39.29024        30.99358         0.69231
C         40.51376        33.12169         0.73509
C         39.28393        33.87430         0.63722
C         39.26424        35.26849         0.66325
O         14.23542        26.97170         1.83419
O         24.86789        54.24037        -2.54198
O         15.55030        18.51662         0.89041
O         28.44941        40.93781         1.99724
O         23.05046        33.90072        -2.04993
O         20.88154        32.54576        -2.51975
O         26.33715        18.50924        -1.16793
O         27.27608        46.67074        -0.36670
O         21.86538        18.50171        -1.92658
O         24.97106        37.68778         2.13688
O         21.69536        25.22723        -2.26210
O         22.48094        46.42711         2.85074
O         22.68752        19.70701         1.36137
O         18.56262        44.07769         2.34212
O         20.46277        40.56229         1.80862
O         26.44055        48.88634         2.62545
O         27.32420        25.04450         2.01205
O         32.80416        41.03972         1.93098
O         26.46156        35.34521         1.88533
O         11.10596        24.90941        -0.63864
O         28.12537        27.64097        -1.62977
O         18.73939        22.89851        -2.55659
O         25.44036        23.61619         1.61704
O         13.49892        32.67488         2.19525
O         15.61162        35.94131         1.59602
O         32.54915        31.21139        -1.79680
O         16.68825        17.38077        -2.30534
O         13.59912        40.00963        -1.59383
O         21.73719        13.05202         1.60151
O         12.22611        22.79636        -1.03014
O         20.97741        27.11510         0.72838
O         31.13766        33.51403        -1.75706
O         29.83771        42.24789        -1.01436
O         28.54545        50.05996         2.16231
O         24.29121        51.68077        -1.91786
H         24.30722        52.48135        -2.50534
O         24.57850        56.88633        -0.04820
H         24.51631        57.86390        -0.01421
O         26.01824        49.69946        -0.85892
H         25.53207        50.23966        -1.53225
O         20.09753        13.91857        -2.08020
H         19.40458        13.65453        -2.72132
O         32.11850        35.15696         1.40162
H         31.42507        34.57755         1.78313
O         35.37776        40.36238         2.85706
H         34.49279        40.72813         3.08522
O         25.80209        26.67143        -1.86386
H         26.60117        27.05506        -2.30132
O         23.22970        53.20723         1.26899
H         22.52390        53.85109         1.53174
O         16.27347        22.77917         1.24153
H         16.15870        21.81001         1.35039
O         19.86636        40.10543        -1.78808
H         19.12868        39.75226        -2.33185
O         33.16657        24.47116        -1.41682
H         33.94844        23.93099        -1.66184
O         17.37756        54.32051        -1.35956
H         17.95460        53.86626        -2.00702
O         24.90316         7.15364         1.38839
H         25.57654         6.74929         1.97365
O         11.11097        39.78334        -1.01297
H         11.68162        39.63217        -1.80010
O         11.95145        40.18538         2.50615
H         11.43745        40.57114         3.24591
O         30.14077        48.13960         2.38755
H         29.98674        49.02028         2.80399
O         29.74438        25.56286         2.30502
H         28.89435        25.51977         2.80245
O         32.96268        27.63013         2.19960
H         33.71351        28.21284         2.48542
O         29.75484        29.55789        -2.29425
H         29.54179        28.66509        -2.64828
O         12.19152        33.72220        -1.04385
H         11.32229        34.04346        -1.36546
O         24.04288        48.47687         3.04199
H         24.88764        48.40966         3.54426
O         30.56702        37.50938        -1.98746
H         31.35948        37.01429        -2.30882
O         20.40578         6.24515        -3.05776
H         21.13788         6.70737        -3.51478
O         17.71514        27.46991        -2.61283
H         18.36579        28.04248        -3.09125
O         15.90029        42.62891        -1.91871
H         16.25741        41.93550        -2.52727
O         26.58135        27.57137         1.63254
H         26.81065        26.95715         2.36622
O          8.38765        31.36668         3.09495
H          9.25315        31.41654         3.55413
O         24.30519        16.81440         1.86868
H         24.30849        15.88742         2.22197
O         34.91971        33.63177        -1.80411
H         34.20717        33.97001        -2.39078
O         18.47568        53.62262         2.04356
H         18.46542        52.77045         2.55107
O         22.78947        39.80305         2.42029
H         23.59505        39.79848         2.97820
O         22.51051        40.13584        -1.20173
H         21.73705        40.03995        -1.80862
O         20.90652        54.87970         1.35069
H         20.09988        54.53223         1.81843
O         26.65503        51.74905         2.12516
H         27.03427        51.09305         2.75786
O         30.84536        31.70970         1.39781
H         29.96634        31.51839         1.81409
O         19.85008        14.78759         1.46301
H         20.22624        14.09447         2.05451
O         19.51974        48.36329         2.95162
H         20.33272        47.89689         3.25037
O         19.36831        29.61836        -2.85738
H         18.65050        30.23074        -3.13289
O          7.41254        33.86458         3.55858
H          7.54478        32.90586         3.76851
O          7.68966        31.41825        -0.50350
H          6.98886        30.97966        -1.02918
O         19.15540         9.19945         1.23744
H         19.13070        10.06654         1.69593
O         28.13000        31.28216         1.61849
H         27.36053        31.76518         1.99295
O         25.51879        20.00750         1.77138
H         24.59420        19.76620         2.02355
O         19.53935        17.88845        -2.86631
H         20.49594        17.82145        -3.09592
O         29.86742        20.89118        -1.28357
H         29.91510        19.93887        -1.51254
O         16.51935        31.19228        -2.02387
H         16.46712        32.14407        -2.26193
O         26.66451         6.21618        -1.69653
H         26.28984         6.91909        -2.27523
O         16.02038        40.20354        -2.24763
H         15.11197        40.15843        -2.63364
O         23.90462        34.76399         1.95574
H         24.70079        34.82983         2.53433
O         25.02868         8.36401        -2.06058
H         24.40578         8.92050        -2.57404
O         21.80054        52.05947        -1.93334
H         21.09290        51.40766        -2.11927
O         30.97063        40.09913        -1.49340
H         30.36750        40.70801        -1.97787
O         19.00488        34.24059        -2.60439
H         19.48801        33.56049        -3.13624
O         34.99100        33.30697         1.83614
H         35.60679        32.85973         2.45346
O         24.24777        13.95613         2.24303
H         23.37936        13.54018         2.47411
O         33.04374        36.06245        -2.00651
H         33.77844        36.61762        -2.34484
O         23.66408        25.52500         1.75568
H         23.93987        24.72248         2.25798
O         27.02341        22.68808        -1.56788
H         27.84363        22.23812        -1.86963
O         29.23260         9.66428         0.35507
H         29.16272         9.78695        -0.61353
O         35.30197        29.04552         2.33204
H         36.04341        28.60077         2.79726
O         18.35243        50.80719         2.59341
H         18.86298        50.07785         3.03222
O         30.00740        20.71184         2.37919
H         30.62607        20.31204         3.02546
O         15.45144        30.97330         2.26508
H         15.06125        31.72795         2.76947
H          5.18352        31.44696         1.02209
H          5.20936        33.74109         1.83080
H          7.60746        26.99472         1.39199
H          6.38645        29.16090         1.09038
H          6.50514        35.98074         1.96994
H          7.68521        38.06667         1.66884
H          9.99844        22.53727         1.54564
H          8.77941        24.97536         1.76447
H          8.97535        40.17470         1.77371
H         10.13882        42.36180         1.36185
H         12.37020        18.37456         0.17153
H         11.46499        20.35941         1.14708
H         11.14020        44.51469         0.68354
H         12.35103        46.69510         0.38861
H         14.79733        13.97814        -0.51487
H         13.56867        16.14893        -0.25975
H         13.59973        48.81583         0.30484
H         14.83147        50.92041         0.26616
H         17.24886         9.73064        -0.75744
H         16.03963        11.86761        -0.84932
H         16.07673        53.01703         0.22328
H         17.53636        55.27760         0.45557
H         19.94987         5.50394        -1.19465
H         18.59513         7.59844        -1.12287
H         18.46251        56.75902        -1.60136
H         19.60997        58.66601        -2.67493
H         23.40596         2.32495        -2.11164
H         21.23126         3.55215        -2.21111
H         22.88585        61.58381        -4.65391
H         20.77398        60.53551        -3.86628
H         25.46937         3.50923        -1.35678
H         26.26836         5.37331         0.13871
H         26.41074        58.61421        -3.35332
H         25.08635        60.51128        -4.20823
H         27.70186         7.61140         0.57980
H         28.13557         9.96452         2.06107
H         29.05922        54.90281        -1.24001
H         27.78123        56.81260        -2.25645
H         30.17947        11.82852         1.19097
H         31.45064        14.01623         1.38526
H         31.42987        50.80285        -0.57742
H         30.25260        52.88401        -0.74230
H         32.69251        16.20686         1.47117
H         33.92607        18.35481         1.40450
H         34.01679        46.62403        -0.19120
H         32.69528        48.73151        -0.52682
H         35.19914        20.44181         1.08437
H         36.49192        22.55262         0.75008
H         36.37620        42.08252         0.55452
H         35.27112        44.45516         0.15428
H         37.77267        24.71607         0.72242
H         39.01240        26.89073         0.78691
H         38.93080        37.95420         0.89565
H         37.63606        40.01300         1.29545
H         40.24885        29.05928         0.79567
H         41.46751        31.21002         0.83428
H         41.46226        33.67588         0.79453
H         40.21116        35.81891         0.77346
