         344
 CSIRO Nanostructure Databank - Neutral Graphene Oxide Data Set
C          1.26408         2.11526         0.41656
C          1.22562         3.52200         0.10523
C          2.39628         1.39051         0.27326
C          2.36042         4.22079        -0.24378
C          1.15024         6.45390        -0.09204
C          1.17538         7.75592         0.24218
C          2.39139         5.68599        -0.26167
C          2.50949         8.40957         0.53552
C          1.33237        10.65668         0.93619
C          1.38841        12.04058         1.12485
C          2.48717         9.92487         0.62331
C          2.56948        12.75482         0.88321
C          1.49652        15.03543         1.42826
C          1.46185        16.37051         1.30763
C          2.75772        14.21838         1.26758
C          2.59505        17.15004         0.74556
C          2.81770        18.55763         1.12430
C          3.59244         1.99696        -0.40416
C          3.63330         3.51115        -0.31503
C          4.89354         1.32942        -0.06748
C          4.81776         4.18452        -0.40007
C          3.57668         6.36283        -0.40545
C          3.51839         7.88191        -0.54573
C          4.82279         5.63735        -0.83420
C          4.92148         8.59658        -0.55173
C          3.69506        10.62118         0.43034
C          3.71374        12.03193         0.47685
C          4.98014         9.82080         0.41245
C          4.88563        12.75926        -0.07030
C          3.83716        14.91088         0.46076
C          3.80804        16.37048         0.28593
C          4.98063        14.22979         0.06052
C          5.08391        17.07531         0.11450
C          3.98819        19.18139         0.84536
C          5.13997        18.48367         0.29018
C          6.07644         2.01603         0.02050
C          6.07263         3.52637         0.13077
C          7.32646         1.33687         0.15969
C          7.37505         4.15875        -0.28125
C          6.11368         6.36481        -0.51507
C          6.15483         7.72626        -0.33383
C          7.38593         5.58349        -0.78427
C          7.42211         8.43177        -0.20065
C          6.21685        10.59320         0.07435
C          6.19456        11.97505        -0.32098
C          7.51308         9.87697         0.27325
C          7.43309        12.75088        -0.43650
C          6.16651        14.89851        -0.38101
C          6.23510        16.34212        -0.28649
C          7.38084        14.15808        -0.61806
C          7.41205        17.04308        -0.61650
C          6.33556        19.16180         0.02311
C          7.48113        18.46844        -0.47701
C          8.54835         2.02742         0.16651
C          8.55001         3.47069        -0.08967
C          9.77794         1.35053         0.31891
C          9.82916         4.16747        -0.06008
C          8.64512         6.31316        -0.40433
C          8.63452         7.75459        -0.34676
C          9.81493         5.61992        -0.17252
C          9.88768         8.46932        -0.41099
C          8.69662        10.62030        -0.30589
C          8.66799        12.03467        -0.46352
C          9.89407         9.92067        -0.51081
C          9.88344        12.73800        -0.70685
C          8.59841        14.85508        -0.86643
C          8.55370        16.30456        -1.25499
C          9.83843        14.17896        -0.83172
C          9.86453        17.02073        -1.09979
C          8.63107        19.17785        -0.86473
C          9.86256        18.50178        -1.38786
C         11.01554         2.04268         0.36013
C         10.99662         3.48804         0.23413
C         12.23734         1.36653         0.51841
C         12.22480         4.25456         0.65113
C         11.07671         6.33527        -0.12250
C         11.09459         7.75943        -0.41222
C         12.24829         5.64797         0.08538
C         12.34096         8.45430        -0.52923
C         11.10222        10.62685        -0.81188
C         11.09838        12.01899        -0.88659
C         12.34117         9.82229        -1.17164
C         12.34441        12.81647        -1.27136
C         11.05514        14.91320        -0.84669
C         11.05154        16.33051        -0.96218
C         12.30295        14.14667        -0.50341
C         12.34867        17.08214        -1.17393
C         11.08234        19.19110        -0.84427
C         12.28164        18.52445        -0.71014
C         13.50281         2.04028         0.60481
C         13.52646         3.49564         0.55133
C         14.69731         1.34264         0.69441
C         14.72936         4.17278         0.55303
C         13.52643         6.34127        -0.10293
C         13.53804         7.81389        -0.22556
C         14.78767         5.60529         0.17701
C         14.76400         8.52683        -0.05635
C         13.66349        10.57206        -0.95957
C         13.65940        12.07612        -1.00287
C         14.81834         9.89785        -0.31158
C         14.80551        12.80286        -0.40180
C         13.58290        14.92962        -0.59317
C         13.57416        16.35393        -0.67603
C         14.75987        14.20459        -0.30981
C         14.74296        17.08779        -0.49439
C         13.50058        19.20102        -0.43152
C         14.74759        18.53137        -0.45326
C         15.99841         2.02629         1.01661
C         15.98900         3.50376         0.70802
C         17.21323         1.37433         0.42450
C         17.18312         4.21533         0.68551
C         16.00578         6.36972         0.45729
C         15.90849         7.85267         0.67164
C         17.19585         5.67854         0.65365
C         17.22813         8.54918         0.50135
C         16.00591        10.65377        -0.04385
C         16.00396        12.07664        -0.09441
C         17.22414         9.94919         0.29769
C         17.23093        12.79917         0.13571
C         15.93638        14.97366         0.24287
C         16.04824        16.33822        -0.46567
C         17.24568        14.22001         0.15204
C         17.19459        17.15119         0.08354
C         15.97487        19.24645        -0.37302
C         17.22392        18.60469        -0.19560
C         18.39896         2.08776         0.28713
C         18.44445         3.51510         0.59508
C         19.60523         1.45832        -0.11845
C         19.65411         4.20146         0.64426
C         18.42234         6.38706         0.80594
C         18.44564         7.80958         0.70618
C         19.67272         5.62737         1.15463
C         19.68703         8.49752         0.80873
C         18.43542        10.68099         0.43682
C         18.45952        12.08976         0.31879
C         19.64784         9.96669         0.86299
C         19.70948        12.81298         0.31736
C         18.45693        14.91879         0.15632
C         18.47989        16.39543         0.25773
C         19.70285        14.22539         0.13456
C         19.73354        17.12180         0.04388
C         18.45665        19.25828        -0.14224
C         19.70528        18.54688        -0.05999
C         20.82720         2.15839        -0.13336
C         20.88012         3.54680         0.28873
C         22.01632         1.50772        -0.52158
C         22.11395         4.22604         0.29280
C         20.93479         6.38371         0.83321
C         20.93776         7.77728         0.84557
C         22.22300         5.60606         0.91265
C         22.20942         8.49244         0.77598
C         20.94625        10.74013         0.92304
C         20.95287        12.14051         0.45309
C         22.23024         9.96832         0.95581
C         22.16190        12.82167         0.17568
C         20.93126        14.93533        -0.06096
C         20.93518        16.39439        -0.13779
C         22.12866        14.20519        -0.16283
C         22.14386        17.10239        -0.29543
C         20.93346        19.23309        -0.16892
C         22.15852        18.53122        -0.26464
C         23.25110         2.18653        -0.53068
C         23.29917         3.57422        -0.13198
C         24.43982         1.51640        -0.89526
C         24.54535         4.27259        -0.17813
C         23.42154         6.38526         0.42610
C         23.39402         7.80706         0.51375
C         24.58604         5.69926         0.04223
C         24.60492         8.55282        -0.00917
C         23.48913        10.73406         0.70722
C         23.44470        12.15434         0.29225
C         24.71568         9.98875         0.38817
C         24.64056        12.78868         0.02166
C         23.36156        14.87568        -0.63848
C         23.38167        16.38150        -0.63337
C         24.68206        14.10912        -0.69909
C         24.67491        17.08571        -0.54473
C         23.40083        19.21149        -0.38258
C         24.63900        18.52479        -0.46319
C         25.68162         2.17849        -0.88132
C         25.73082         3.57690        -0.53341
C         26.87964         1.49959        -1.21949
C         26.98921         4.24942        -0.52407
C         25.85688         6.38408        -0.07992
C         25.92102         7.82935         0.06477
C         27.02930         5.65045        -0.24060
C         27.11451         8.52855        -0.00172
C         25.90753        10.67238         0.31282
C         25.90222        12.11390         0.21950
C         27.17617         9.96865         0.20721
C         27.10956        12.82039         0.19895
C         25.91665        14.92702        -0.35283
C         25.89149        16.38014        -0.48009
C         27.08220        14.25167        -0.05311
C         27.12271        17.11054        -0.41059
C         25.85146        19.23914        -0.43690
C         27.10226        18.56590        -0.44329
C         28.11622         2.15866        -1.20899
C         28.17929         3.54204        -0.85086
C         29.33089         1.47113        -1.56364
C         29.45195         4.21441        -0.84566
C         28.34455         6.34476         0.01126
C         28.34631         7.78678        -0.51569
C         29.54605         5.57518        -0.47163
C         29.66006         8.46377        -0.15906
C         28.36105        10.67011         0.44986
C         28.34693        12.13057         0.56268
C         29.64764         9.88912         0.39250
C         29.42873        12.92255         1.01042
C         28.42156        14.93401        -0.13155
C         28.35413        16.44484        -0.18774
C         29.32595        14.45047         0.99586
C         29.54648        17.16579        -0.04461
C         28.29561        19.28157        -0.45755
C         29.60855        18.57467        -0.58411
C         30.53613         2.11545        -1.55910
C         30.63439         3.50078        -1.19232
C         31.88144         4.16922        -1.14586
C         30.79325         6.21128        -0.39401
C         30.83887         7.59636         0.08269
C         31.96361         5.49234        -0.74521
C         31.93666         8.09871         0.73587
C         30.76281        10.15274         1.31073
C         30.56078        12.44242         1.73884
C         31.87055         9.35390         1.41296
C         31.65015        13.23190         2.05941
C         30.66645        15.17822         0.98728
C         30.71481        16.56446         0.53873
C         31.74389        14.56867         1.58551
C         31.83129        17.36893         0.78365
C         30.76203        19.37923        -0.07061
C         31.82277        18.77235         0.52281
O         14.32174         5.75827        -1.24312
O         23.04889        10.43017         2.10002
O         17.66337        16.85247         1.43341
O         30.01212         9.60755        -1.01205
O          2.77169        16.86579        -0.68175
O         23.16740        15.60395        -1.90259
O         14.07699        11.28981        -2.18508
O         30.60039        11.14455         2.27169
O         20.17230        10.53143         2.14546
O          5.21319        12.29951        -1.39353
O         12.27059        13.12051        -2.67589
H         12.74953        12.40539        -3.15317
O         28.66674        14.84281         2.23596
H         29.24754        14.58099         2.98109
O          7.45494         5.48443        -2.25880
H          6.53486         5.33009        -2.58665
O         28.47128         6.48168         1.46223
H         28.42439         5.58532         1.85601
O          5.12252         9.16837        -1.87429
H          5.65061         8.54177        -2.41260
O         15.55121         8.00436         2.11681
H         16.32697         7.70671         2.63939
O          5.17450         9.32128         1.76911
H          4.37486         8.79218         2.03499
O         16.40577        16.09400        -1.85824
H         15.58615        15.88491        -2.35559
O         24.88573        13.73590        -2.10280
H         24.43572        14.43576        -2.63520
O          8.28860        16.33344        -2.74046
H          8.78874        15.58548        -3.13458
O         19.68967         5.49450         2.64835
H         19.63783         6.40418         3.01538
O         22.45494         5.37119         2.35278
H         21.57621         5.13156         2.74113
O          4.72436         5.60722        -2.32721
H          4.07415         6.29996        -2.58810
O          3.38644         1.74025        -1.84596
H          4.09398         2.21748        -2.33045
O          7.79856         9.80838         1.72251
H          6.96624         9.48896         2.15012
O          3.29935        14.15239         2.64151
H          4.06550        13.53975         2.63861
O         12.50265        17.15666        -2.63034
H         11.74042        17.69276        -2.96378
O         12.22029         9.54137        -2.60035
H         12.90084        10.08512        -3.06075
O          5.99722         3.80697         1.58817
H          6.73521         3.31637         2.01049
O         15.61783        15.17718         1.64274
H         16.36271        15.70206         2.02984
O          9.89966        18.60465        -2.86984
H          9.18948        17.99193        -3.19093
O         12.18348        13.75574         0.90372
H         12.43236        14.52352         1.46066
O         29.84593        18.42595        -2.05308
H         29.13840        17.83694        -2.39380
O         12.06134         4.45461         2.11844
H         11.19746         4.89972         2.25712
O          2.90530         8.11466        -1.83364
H          3.42710         8.83392        -2.27149
O          2.91552         7.91824         1.85034
H          2.92905         6.93644         1.80831
O         24.32337         8.62078        -1.47237
H         25.16059         8.86623        -1.92361
O         29.03733        14.48886        -1.37477
H         28.37415        14.57258        -2.09136
O         28.23129         7.76479        -1.95474
H         28.69795         8.56361        -2.28944
O         16.13873         1.91368         2.49464
H         15.38635         2.40472         2.88979
H          0.35740         1.65634         0.83726
H          0.27526         4.04964         0.26536
H          2.42827         0.32732         0.55280
H          0.18871         5.95169        -0.26749
H          0.23679         8.31281         0.36979
H          0.37644        10.14228         1.10317
H          0.47913        12.56536         1.44731
H          0.61178        14.51805         1.82817
H          0.53911        16.91987         1.55352
H          2.00856        19.09567         1.64067
H          4.91030         0.22763        -0.07210
H          4.11533        20.24371         1.10290
H          7.32651         0.23756         0.21372
H          6.38941        20.25105         0.16845
H          9.77225         0.25701         0.44298
H          8.61689        20.27780        -0.82877
H         12.22916         0.26753         0.58099
H         11.02286        20.26762        -0.62102
H         14.67941         0.24183         0.71226
H         13.47776        20.28816        -0.26021
H         17.19314         0.29768         0.19668
H         15.94617        20.34488        -0.43216
H         19.59282         0.39236        -0.39120
H         18.49370        20.34969        -0.27749
H         21.97924         0.44922        -0.81936
H         20.93832        20.33158        -0.22296
H         24.39430         0.45393        -1.17689
H         23.40902        20.31110        -0.35443
H         26.83257         0.43589        -1.49645
H         25.83338        20.33809        -0.39915
H         29.26906         0.40902        -1.84226
H         28.27079        20.37972        -0.51980
H         31.45528         1.57614        -1.83141
H         32.79399         3.62014        -1.42010
H         32.94139         5.99279        -0.70996
H         32.82581         7.47016         0.88393
H         32.65934         9.62175         2.12762
H         32.48121        12.79259         2.62533
H         32.70435        15.08870         1.70148
H         32.72266        16.94901         1.26826
H         30.75914        20.46438        -0.24891
H         32.68997        19.36649         0.84655
