         620
 CSIRO Nanostructure Databank - Neutral Graphene Oxide Data Set
C         23.05980        27.33820         0.61151
C         23.07227        28.69199         0.47875
C         22.99325        31.60134         0.05296
C         22.98022        32.99136         0.06429
C         22.98034        35.94408         0.32042
C         22.97837        37.32441         0.35411
C         22.95909        40.26987         0.24621
C         22.92138        41.62512         0.26148
C         22.92339        44.61054         0.41832
C         22.87221        45.97057         0.38456
C         25.47738        24.46752         0.23470
C         24.29711        25.12224         0.40077
C         25.33586        27.27436        -0.53813
C         24.11301        26.52871        -0.00376
C         25.39892        28.73459        -0.34989
C         24.21933        29.41698        -0.01600
C         25.42369        31.58851        -0.05158
C         24.19983        30.87184         0.00378
C         25.39312        33.00371         0.00397
C         24.17975        33.73353         0.06018
C         25.37926        35.93746         0.03302
C         24.18310        35.20836         0.14020
C         25.40500        37.36745         0.09198
C         24.17664        38.07813         0.23264
C         25.42230        40.20682         0.24524
C         24.19677        39.51839         0.28823
C         25.45904        41.66757         0.43967
C         24.13357        42.41864         0.50090
C         25.35923        44.52923         0.02228
C         24.14777        43.87620         0.22898
C         25.35454        45.97347        -0.25676
C         24.02461        46.74401        -0.06986
C         25.31682        48.81842         0.20609
C         24.12762        48.17253         0.25057
C         27.96666        22.99679        -0.17893
C         27.90458        24.42022        -0.32843
C         26.66541        25.08932        -0.29545
C         27.91062        27.26709        -0.79878
C         26.60485        26.49519        -0.71882
C         27.87718        28.73280        -0.61590
C         26.66161        29.42787        -0.45391
C         27.87219        31.56006        -0.38742
C         26.67662        30.87165        -0.25458
C         27.95850        32.99465        -0.10421
C         26.66409        33.73840         0.08538
C         27.93383        35.91775        -0.25355
C         26.63515        35.19742        -0.21206
C         27.91796        37.38095         0.04552
C         26.63597        38.10294         0.04208
C         27.90072        40.26259        -0.10081
C         26.65827        39.50874         0.09014
C         27.88717        41.72083        -0.12884
C         26.68226        42.42098         0.09195
C         27.84596        44.57047        -0.17986
C         26.63474        43.83662         0.00155
C         27.83923        46.01557        -0.18823
C         26.61223        46.72975        -0.14446
C         27.81301        48.85266         0.01797
C         26.57936        48.13790        -0.02206
C         27.85311        50.30132         0.19453
C         30.40972        23.02650        -0.14202
C         29.15844        22.33141        -0.11356
C         30.39880        24.44695        -0.29986
C         29.15730        25.14713        -0.43373
C         30.39209        27.28729        -0.48091
C         29.17300        26.55413        -0.54909
C         30.37096        28.73727        -0.60707
C         29.14082        29.40530        -0.65305
C         30.38207        31.63090        -0.97489
C         29.09252        30.86651        -0.83267
C         30.37803        33.08559        -0.68123
C         29.21111        33.73123        -0.38436
C         30.36889        35.91209        -0.69576
C         29.24630        35.18871         0.02232
C         30.35213        37.40551        -0.79021
C         29.18204        38.15215        -0.22328
C         30.29458        40.33524        -0.80241
C         29.08058        39.60245        -0.40110
C         30.34764        41.77224        -0.51503
C         29.10496        42.45209        -0.30388
C         30.32433        44.60213        -0.40140
C         29.08709        43.88018        -0.28004
C         30.32805        46.03014        -0.37450
C         29.06479        46.73609        -0.24158
C         30.28451        48.92195        -0.14560
C         29.02317        48.14653        -0.12479
C         30.26158        50.21186         0.61850
C         28.98939        50.95976         0.51330
C         32.86640        20.23386         0.27317
C         31.68379        20.91537         0.18141
C         32.88419        23.04658        -0.09048
C         31.64484        22.33096        -0.01453
C         32.88175        24.46931        -0.20330
C         31.62792        25.17811        -0.27959
C         32.87405        27.36148        -0.03502
C         31.61100        26.59429        -0.33915
C         32.86112        28.79083        -0.51222
C         31.63492        29.46785        -0.66938
C         32.85920        31.60651        -0.86681
C         31.65416        30.88953        -0.84318
C         32.85966        33.06864        -0.90921
C         31.65187        33.79500        -0.76457
C         32.85947        35.93543        -0.93329
C         31.66393        35.20622        -0.77323
C         32.84293        37.40637        -0.93589
C         31.64381        38.10795        -0.86939
C         32.87066        40.32346        -0.74731
C         31.62324        39.57632        -0.97743
C         32.82849        41.70566        -0.55623
C         31.58149        42.44769        -0.53881
C         32.76467        44.63256        -0.61145
C         31.56482        43.89841        -0.49812
C         32.78992        46.04275        -0.53558
C         31.55871        46.73167        -0.42981
C         32.84905        48.86761         0.07877
C         31.58396        48.20360        -0.31883
C         32.83768        50.16610         0.57153
C         31.57722        50.83365         0.99345
C         32.86133        52.82727         1.62560
C         31.66177        52.25246         1.38176
C         35.39331        18.79575         0.56498
C         35.34228        20.18937         0.18320
C         34.12461        20.90330         0.14048
C         35.34940        23.02956        -0.19210
C         34.11788        22.32849        -0.05316
C         35.34883        24.45462        -0.30825
C         34.11903        25.18019        -0.28820
C         35.33865        27.30685        -0.54253
C         34.14081        26.61082        -0.36936
C         35.34660        28.76399        -0.64741
C         34.09823        29.48091        -0.64033
C         35.33606        31.59006        -0.99879
C         34.10217        30.89814        -0.83676
C         35.33659        33.04554        -1.42587
C         34.06747        33.78865        -1.05734
C         35.33717        35.92523        -1.24250
C         34.06164        35.19671        -1.07476
C         35.33678        37.42291        -1.19094
C         34.06700        38.15539        -0.97879
C         35.36169        40.25282        -0.85254
C         34.10718        39.55756        -0.81304
C         35.43615        41.69878        -0.43165
C         34.10310        42.45065        -0.37182
C         35.18979        44.69866        -1.25939
C         34.07040        43.93467        -0.55981
C         35.29438        46.11415        -0.73812
C         34.06684        46.76874        -0.48909
C         35.32378        48.83525        -0.08509
C         34.08719        48.15413        -0.15416
C         35.30410        50.27458         0.22954
C         34.07035        50.87332         0.76942
C         35.36957        52.68058         1.84663
C         34.10568        52.12278         1.38480
C         35.37041        53.66914         2.85656
C         37.78980        18.62275        -0.08878
C         36.52856        18.06487         0.50312
C         37.77394        20.13074        -0.11746
C         36.58964        20.86138        -0.09185
C         37.78816        23.02254        -0.39199
C         36.58488        22.30973        -0.24693
C         37.80986        24.44525        -0.40093
C         36.58324        25.16274        -0.39885
C         37.81725        27.27163        -0.64076
C         36.58982        26.58829        -0.55373
C         37.84349        28.70225        -1.10629
C         36.55183        29.45974        -0.82506
C         37.81758        31.62147        -1.13124
C         36.53789        30.87742        -0.98197
C         37.81502        33.07777        -0.91822
C         36.59423        33.79054        -1.01415
C         37.82409        35.91672        -0.88128
C         36.59069        35.18412        -0.96370
C         37.83359        37.32554        -0.97012
C         36.58635        38.10920        -0.68259
C         37.82404        40.29948        -1.08896
C         36.59929        39.59208        -0.98225
C         37.87277        41.73715        -1.10126
C         36.55546        42.44223        -1.15358
C         37.77422        44.69719        -1.25700
C         36.50754        43.93205        -1.34434
C         37.77296        46.05376        -1.00176
C         36.53728        46.78981        -0.72104
C         37.79719        48.90262        -0.19671
C         36.55800        48.18341        -0.36125
C         37.86124        50.19651         0.36376
C         36.61791        50.98660         0.49589
C         37.84138        52.62196         1.91990
C         36.60822        52.14122         1.41409
C         37.77850        53.53172         2.98697
C         36.55816        54.04172         3.46231
C         40.19874        16.11395         1.46206
C         39.10149        16.67356         0.87814
C         40.26096        18.81526         0.55308
C         39.05338        18.05956         0.53436
C         40.30615        20.15324         0.02963
C         39.05509        20.78590        -0.40567
C         40.32524        23.01995        -0.35148
C         39.05773        22.30655        -0.56136
C         40.29518        24.46243        -0.31930
C         39.05967        25.15449        -0.39554
C         40.26994        27.31256        -0.28691
C         39.04683        26.58714        -0.45495
C         40.25397        28.76315        -0.31070
C         39.09541        29.43267        -0.66910
C         40.29501        31.64799        -0.43531
C         39.13030        30.88101        -0.91565
C         40.24568        33.03151        -0.39044
C         39.04323        33.76826        -0.72458
C         40.31966        35.91927        -0.79555
C         39.04672        35.18686        -0.79920
C         40.34777        37.39423        -0.88039
C         39.07877        38.04336        -1.24744
C         40.38250        40.26341        -1.34264
C         39.05863        39.54929        -1.38374
C         40.35508        41.77354        -1.36677
C         39.04028        42.45737        -1.28525
C         40.36464        44.65684        -1.27990
C         39.03603        43.93161        -1.45585
C         40.35449        46.10579        -0.98768
C         39.05471        46.81384        -1.07592
C         40.32655        48.92844        -0.31174
C         39.05052        48.27879        -0.64134
C         40.30558        50.24408         0.19091
C         39.09457        50.85551         0.60430
C         40.40603        53.01093         1.25654
C         39.09628        52.24409         1.17434
C         40.66288        54.23414         2.08378
C         39.84708        54.70135         3.11291
C         40.98930        56.82736         3.23055
C         40.00240        55.98301         3.69300
C         42.66230        16.18357         1.85510
C         41.38158        16.95748         1.82747
C         42.72289        18.83862         0.75214
C         41.46691        18.21691         1.00351
C         42.75215        20.19983         0.27071
C         41.51241        20.87532        -0.01414
C         42.81032        23.04158        -0.43026
C         41.51050        22.30343        -0.24511
C         42.74913        24.49907        -0.05092
C         41.51705        25.18980        -0.15211
C         42.70602        27.33260         0.18909
C         41.48575        26.62191        -0.08047
C         42.69650        28.78050         0.21771
C         41.49112        29.49142        -0.04654
C         42.70314        31.63646         0.13114
C         41.48461        30.91346        -0.06865
C         42.69975        33.05991         0.20469
C         41.36665        33.77569         0.30139
C         42.61344        36.00619         0.33602
C         41.51179        35.19217        -0.23139
C         42.62335        37.49043         0.11881
C         41.48461        38.14110        -0.58015
C         42.77001        40.28728        -0.61681
C         41.56566        39.56148        -0.79775
C         42.78162        41.74831        -0.73644
C         41.58011        42.49347        -0.95373
C         42.79098        44.61281        -0.69291
C         41.58680        43.89215        -0.93115
C         42.81017        46.04802        -0.68735
C         41.54256        46.78104        -0.77827
C         42.78169        48.89899        -0.48982
C         41.56341        48.23055        -0.56128
C         42.81267        50.35942        -0.37983
C         41.51544        51.07280         0.04775
C         42.83301        53.07868         0.60147
C         41.63475        52.37823         0.69891
C         42.90485        54.46651         1.02620
C         41.80823        55.02950         1.75461
C         43.05982        57.14117         1.92421
C         41.93756        56.34573         2.29229
C         43.84577        16.77649         1.53793
C         45.22594        18.68816         0.66960
C         43.92109        18.11400         1.03105
C         45.25178        20.18572         0.29229
C         43.98082        20.92463         0.22861
C         45.22967        23.05781         0.27218
C         44.01903        22.32136         0.09796
C         45.20036        24.47504         0.34231
C         43.94454        25.19721         0.23342
C         45.11012        27.32898         0.91562
C         43.89473        26.61265         0.39920
C         45.15553        28.79822         0.56204
C         43.93478        29.48844         0.38168
C         45.13815        31.65738         0.35691
C         43.93474        30.93386         0.28714
C         45.14768        33.06793         0.23905
C         43.90065        33.76876         0.26549
C         45.15000        35.97764         0.30564
C         43.93106        35.23632         0.49390
C         45.22493        37.46625         0.58379
C         43.92666        38.23362         0.25454
C         45.23363        40.26434        -0.32094
C         43.98760        39.61133        -0.27847
C         45.25425        41.70441        -0.60975
C         43.98614        42.45863        -0.58667
C         45.22217        44.61314        -0.32155
C         44.01169        43.88784        -0.55350
C         45.25364        46.02124        -0.33451
C         44.03117        46.72657        -0.55776
C         45.31668        48.91094        -0.35294
C         44.07195        48.20558        -0.84153
C         45.30996        50.32325        -0.19970
C         44.07782        51.05334        -0.12454
C         45.29479        53.15780         0.17421
C         44.05948        52.42095         0.18142
C         45.29123        54.56689         0.35794
C         44.07641        55.22288         0.81881
C         44.09462        56.59613         1.20441
C         47.65301        18.82844         1.06981
C         46.48810        18.13822         1.18093
C         47.70926        20.22113         0.68469
C         46.50374        20.92890         0.47510
C         47.70726        23.06192         0.51369
C         46.48100        22.34652         0.43882
C         47.70069        24.49247         0.53316
C         46.43009        25.21120         0.53217
C         47.63751        27.36455         0.81841
C         46.39776        26.59458         0.66914
C         47.62790        28.82657         0.60479
C         46.40206        29.49236         0.58060
C         47.66373        31.67889         0.35450
C         46.40364        30.98258         0.79180
C         47.62253        33.07655         0.05986
C         46.38177        33.76951         0.06489
C         47.57574        35.97749        -0.45852
C         46.31562        35.22897        -0.16576
C         47.64450        37.43503        -0.17443
C         46.47099        38.14628         0.03866
C         47.70143        40.30087        -0.00711
C         46.46053        39.58439        -0.09007
C         47.75701        41.69478         0.02910
C         46.54613        42.44263        -0.35211
C         47.74133        44.61634         0.23015
C         46.44051        43.87153         0.03211
C         47.72633        46.07153         0.01847
C         46.51651        46.74365        -0.18129
C         47.76141        48.90403        -0.10442
C         46.52166        48.19540        -0.22744
C         47.77081        50.32621        -0.12907
C         46.53711        51.03761        -0.10337
C         47.75096        53.19469        -0.09815
C         46.52771        52.46766        -0.02542
C         47.69946        54.60269        -0.03276
C         46.50531        55.26862         0.20279
C         50.20493        20.25796         0.72682
C         48.95287        20.93325         0.66959
C         50.18907        23.07386         0.57848
C         48.94940        22.35666         0.57570
C         50.17755        24.50101         0.53876
C         48.92373        25.17641         0.56216
C         50.13159        27.37350         0.18629
C         48.93924        26.63885         0.74127
C         50.11138        28.85409         0.47978
C         48.88802        29.53421         0.53112
C         50.12152        31.68898         0.27006
C         48.87595        30.97965         0.38885
C         50.07914        33.10884         0.05998
C         48.87104        33.76519        -0.15550
C         50.12120        35.95030        -0.75431
C         48.84588        35.19213        -0.59103
C         50.10605        37.42853        -0.48797
C         48.93342        38.09447        -0.18178
C         50.22674        40.29230         0.41807
C         48.92912        39.52127         0.25230
C         50.23415        41.74982         0.19761
C         48.99457        42.43603         0.15889
C         50.21316        44.57339         0.04283
C         49.00064        43.86023         0.10239
C         50.19244        46.01411         0.10453
C         48.99609        46.75209         0.06186
C         50.21703        48.91716        -0.00530
C         49.00719        48.19917         0.00407
C         50.24250        50.33647        -0.16668
C         49.00707        51.05094        -0.16908
C         50.24500        53.14364        -0.29507
C         49.00683        52.47496        -0.20553
C         51.39436        20.94998         0.71454
C         52.66453        23.10542         0.69546
C         51.42720        22.37118         0.65761
C         52.65596        24.52883         0.65222
C         51.41181        25.23975         0.56794
C         52.61792        27.39986         0.52289
C         51.42038        26.65970         0.50367
C         52.57707        28.83000         0.43151
C         51.36305        29.55808         0.42596
C         52.61495        31.72456         0.23925
C         51.35821        30.99673         0.34395
C         52.62174        33.11759         0.07420
C         51.35013        33.90737         0.28448
C         52.55171        35.61090        -1.03522
C         51.37358        35.18008        -0.50719
C         52.61022        37.68123        -0.98561
C         51.41065        38.11203        -0.29875
C         52.73237        40.30029        -0.09915
C         51.51056        39.56090         0.22595
C         52.71556        41.72625        -0.12781
C         51.46177        42.44417         0.02519
C         52.70133        44.57637        -0.15359
C         51.45717        43.86443        -0.02818
C         52.73160        45.99043        -0.05946
C         51.48093        46.70065         0.26977
C         52.75490        48.90633        -0.11558
C         51.49225        48.22462         0.21688
C         52.74787        50.30901        -0.28383
C         51.48294        51.04008        -0.25305
C         51.44562        52.44484        -0.32911
C         55.10175        23.13724         0.84471
C         53.92021        22.43909         0.78622
C         55.12949        24.56190         0.80464
C         53.88930        25.25683         0.68773
C         55.10169        27.38519         0.70878
C         53.88274        26.68810         0.62463
C         55.06374        28.86055         0.80887
C         53.87999        29.53547         0.15567
C         55.07021        31.73561         0.32752
C         53.86520        31.03222         0.31792
C         55.08936        33.12614         0.01901
C         53.85341        33.79711        -0.16872
C         55.04868        35.92078        -0.71169
C         53.85839        35.14768        -0.63417
C         55.07687        37.37770        -0.82511
C         53.87502        38.17468        -0.67586
C         55.15674        40.26358        -0.54310
C         53.92285        39.57978        -0.34784
C         55.15586        41.69598        -0.56526
C         53.92002        42.42113        -0.36766
C         55.11621        44.57941        -0.58022
C         53.91726        43.86070        -0.36510
C         55.14165        45.99051        -0.51053
C         53.93793        46.70675        -0.21621
C         55.19577        48.85142        -0.32263
C         53.96001        48.15997        -0.19636
C         55.17902        50.25878        -0.44357
C         53.98882        50.96598        -0.46253
C         57.62938        24.62183         0.97171
C         56.36673        25.28933         0.87999
C         57.58359        27.45738         0.88061
C         56.34349        26.71300         0.85765
C         57.60894        28.87897         0.81415
C         56.34361        29.62736         0.95964
C         57.59063        31.72718         0.19656
C         56.36214        31.14854         0.85332
C         57.56338        33.09989        -0.17363
C         56.31357        33.83157        -0.21088
C         57.53853        35.91579        -0.72613
C         56.29484        35.21568        -0.53429
C         57.54696        37.33811        -0.87613
C         56.30774        38.07048        -0.81856
C         57.57229        40.21933        -0.96724
C         56.34268        39.51817        -0.78610
C         57.58106        41.65751        -1.01536
C         56.35412        42.37193        -0.86067
C         57.60974        44.59290        -1.18820
C         56.31659        43.83844        -1.02034
C         57.62213        45.99237        -0.71857
C         56.40294        46.70080        -0.56950
C         57.69342        48.72700        -0.12987
C         56.44361        48.10470        -0.34289
C         58.80839        25.32134         0.96466
C         60.03176        27.46656         0.76717
C         58.81700        26.74751         0.87854
C         60.02428        28.83243         0.55899
C         58.81043        29.56716         0.54617
C         59.96859        31.65336        -0.24662
C         58.79053        30.99565         0.18999
C         59.96243        32.99680        -0.57208
C         58.77166        33.76022        -0.52414
C         59.96530        35.90608        -0.97125
C         58.76453        35.19221        -0.75529
C         59.97022        37.28299        -1.10658
C         58.77419        38.03278        -1.04287
C         59.97429        40.19840        -1.36528
C         58.78953        39.48736        -1.13495
C         59.97923        41.59705        -1.41510
C         58.81853        42.34259        -1.22448
C         60.04482        44.46559        -0.56221
C         58.93310        43.85609        -1.38578
C         60.02855        45.76570        -0.21014
C         58.84398        46.60117        -0.36868
C         58.86256        47.97834        -0.06966
O         45.32009        19.13228        -0.72462
O         46.12631        42.14566        -1.72269
O         34.20340        43.37651         0.79480
O         41.97079        51.06270        -1.34790
O         30.78655        50.03684         1.98226
O         29.58939        31.29433        -2.16738
O         29.99658        36.56565        -1.94801
O         39.82850        44.35792        -2.61817
O         35.93217        51.14743        -0.78279
O         40.60253        40.99527        -2.59405
O         38.98645        38.70170        -2.58328
O         39.42316        53.26985         0.16121
O         55.50501        29.27603         2.13727
O         49.48607        39.81470         1.58179
O         24.52346        46.37268        -1.39257
O         34.69294        44.86996        -2.61607
O         39.01365        47.87094        -2.07640
O         27.22906        26.78092        -2.01292
O         39.10523        21.41845        -1.73608
O         24.28392        26.80488        -1.43632
O         30.93865        48.93669        -1.45224
O         38.65410        31.22796        -2.27975
O         42.96132        38.18713         1.37044
O         38.90248        53.87952         3.73476
O         46.92281        44.15462         1.37978
O         27.28505        35.54877        -1.49827
O         43.05047        35.63147         1.66116
O         28.81307        37.74417         1.14481
O         46.67154        35.66242        -1.57906
O         52.50493        36.68357        -1.95258
O         49.41259        35.44625        -1.93808
O         48.45001        27.04491         2.05213
O         27.45871        33.37105         1.27250
O         51.55698        47.50346         1.50063
O         30.81980        40.01427        -2.13690
O         24.86284        42.07151         1.72675
O         51.70515        38.43921         1.11527
O         56.75241        44.34927        -2.35580
O         41.37780        35.29484        -1.66372
O         35.43130        36.74344        -2.47971
O         37.81986        18.19311        -1.50281
H         38.44615        18.78150        -1.97781
O         40.99357        33.85275         1.70515
H         41.71032        34.35352         2.16511
O         54.13217        29.32163        -1.28579
H         53.44071        29.80821        -1.78315
O         35.93922        41.58967         0.94547
H         35.48831        42.29690         1.46852
O         45.39329        37.56508         2.03471
H         44.48639        37.50254         2.42106
O         36.37876        42.98829        -2.48956
H         35.12180        44.18763        -3.18317
O         56.44318        31.65710         2.22421
H         55.90091        31.04721         2.77720
O         36.47384        38.06101         0.79785
H         36.33172        38.97572         1.12935
O         44.97166        27.31623         2.39858
H         45.85830        27.51370         2.77335
O         37.92274        28.61750        -2.57202
H         38.10405        29.53654        -2.89430
O         46.39653        31.13256         2.27157
H         45.58587        30.68929         2.60329
O         41.14707        17.41561         3.23126
H         41.94574        17.91778         3.50104
O         59.32475        44.07985        -2.77240
H         58.49160        44.05405        -3.29720
O         43.02843        23.05111        -1.89983
H         42.19780        23.36785        -2.31628
O         35.36386        33.00508        -2.88794
H         35.37352        33.92962        -3.21735
O         44.16311        48.31529        -2.31203
H         43.31595        47.99580        -2.69124
O         32.89083        27.47137         1.44630
H         32.92627        26.55752         1.80227
O         29.53250        35.21823         1.43647
H         28.86182        34.64322         1.87651
O         51.31611        34.26537         1.71025
H         51.37226        33.43511         2.22912
O         49.97186        27.26477        -1.27452
H         50.77973        27.63247        -1.69152
H         22.25241        26.83523         1.16336
H         22.23839        29.27014         0.90057
H         22.03250        31.06913         0.05405
H         22.00989        33.50467         0.08865
H         22.02379        35.41596         0.42927
H         22.01903        37.83993         0.49383
H         22.01942        39.72355         0.08797
H         21.97109        42.14234         0.06764
H         22.03190        44.05421         0.74011
H         21.97578        46.50482         0.73150
H         25.54454        23.42708         0.58201
H         23.45348        24.61200         0.88868
H         25.33449        49.89127         0.43878
H         23.21551        48.70845         0.55271
H         27.03544        22.41552        -0.16194
H         26.91970        50.87329         0.10768
H         29.14065        21.23726        -0.03374
H         28.97171        52.04271         0.70121
H         32.83854        19.14559         0.41265
H         30.74841        20.34758         0.26286
H         32.89888        53.87371         1.95812
H         30.73116        52.81007         1.55515
H         34.48492        18.32209         0.96280
H         34.42530        54.08914         3.22368
H         36.51059        17.01630         0.83106
H         36.56437        54.74829         4.30198
H         40.20992        15.04646         1.72590
H         38.23268        16.03932         0.65209
H         41.09658        57.84280         3.63696
H         39.31051        56.29538         4.48579
H         42.63917        15.14454         2.21409
H         43.11418        58.18139         2.27580
H         44.77279        16.19140         1.62049
H         44.97007        57.21872         0.97903
H         48.57762        18.34684         1.41695
H         46.49575        17.14147         1.64374
H         48.61866        55.19567        -0.12788
H         46.52749        56.36308         0.28590
H         50.23294        19.16085         0.76242
H         50.27906        54.24019        -0.33940
H         52.33093        20.37877         0.75454
H         52.37878        53.01914        -0.39864
H         56.03886        22.57145         0.92501
H         53.95905        21.34262         0.81829
H         56.12252        50.80726        -0.56820
H         54.02572        52.05425        -0.60237
H         57.66742        23.52589         1.02280
H         57.74154        49.80640         0.06839
H         59.76861        24.78688         1.00265
H         60.98436        26.91833         0.79455
H         60.98283        29.34864         0.41918
H         60.91879        31.10690        -0.30576
H         60.90923        33.46606        -0.87026
H         60.92448        35.37372        -1.01279
H         60.93389        37.78890        -1.24938
H         60.92420        39.67023        -1.51900
H         60.92525        42.11650        -1.62141
H         60.94722        43.86271        -0.38231
H         60.90230        46.21511         0.28631
H         59.81483        48.46366         0.18722
