         276
 CSIRO Nanostructure Databank - Neutral Graphene Oxide Data Set
C        -11.13256         0.63164         1.05631
C        -10.19645         1.49736         0.22910
C         -8.83224         0.78930         0.15718
C         -7.60580         1.58017        -0.11963
C         -6.42613         0.92425        -0.81000
C         -5.10864         1.67126        -0.80886
C         -3.82558         0.86826        -0.72734
C         -2.68459         1.51888        -0.00830
C         -1.44584         0.75835         0.30089
C         -0.15187         1.51945         0.48927
C          1.11151         0.75861         0.78539
C          2.43669         1.50138         0.65757
C          3.69182         0.67744         0.72474
C          5.01903         1.35705         0.51363
C          6.23413         0.55328         1.01826
C          7.52998         1.37203         0.92047
C          8.82930         0.62112         0.74840
C         10.11489         1.39844         0.73790
C         11.36719         0.64501         0.43254
C        -10.12072         2.94051         0.80352
C         -8.92192         3.78109         0.38763
C         -7.70073         3.08376        -0.10707
C         -6.41099         3.83883        -0.10659
C         -5.11337         3.10668        -0.36314
C         -3.86133         3.78843         0.08565
C         -2.60021         3.02314         0.03176
C         -1.34208         3.63579        -0.50376
C         -0.07841         2.85196        -0.24168
C          1.23761         3.56934        -0.38060
C          2.48878         2.91768         0.16274
C          3.76728         3.46936        -0.47830
C          5.06572         2.79911         0.10072
C          6.27355         3.60513         0.50200
C          7.56157         2.86440         0.74643
C          8.85997         3.56927         0.51803
C         10.02876         2.87828         0.59792
C         -8.92983         5.13849         0.45457
C         -7.67633         5.98046         0.70408
C         -6.35157         5.24960         0.41641
C         -5.09536         6.00803         0.12011
C         -3.80113         5.27851        -0.07509
C         -2.54417         5.94657        -0.50766
C         -1.32559         5.11664        -0.84185
C         -0.01891         5.85358        -0.82010
C          1.25509         5.05915        -0.61498
C          2.49857         5.78258        -0.09566
C          3.79346         5.01282        -0.45921
C          5.06551         5.74515        -0.24454
C          6.32521         5.05442         0.18628
C          7.63314         5.72338        -0.22670
C          8.83347         5.10627         0.54715
C         -7.57182         7.47123         0.37751
C         -6.39407         8.13377         0.13255
C         -5.22882         7.38535        -0.51626
C         -3.88801         8.16398        -0.67240
C         -2.58626         7.40629        -0.87641
C         -1.26824         8.11921        -0.67202
C         -0.02046         7.30032        -0.32831
C          1.23958         8.07243        -0.81269
C          2.51052         7.23213        -0.57072
C          3.70836         8.02324        -0.82673
C          5.09422         7.16642         0.31800
C          6.34653         7.92518        -0.03071
C          7.52107         7.24558        -0.14921
C         -6.21587         9.55161         0.41183
C         -5.01804        10.18985         0.38728
C         -3.78459         9.58986        -0.18625
C         -2.44447        10.13796         0.14951
C         -1.27347         9.49648        -0.10777
C          0.04280        10.06911         0.41835
C          1.32337         9.44158        -0.13747
C          2.51871        10.06639        -0.05759
C          3.77408         9.55523        -0.78451
C          5.09039        10.08547        -0.25412
C          6.22550         9.38785        -0.02380
C        -10.98899        -0.70550         1.16909
C         -9.93930        -1.46652         0.49496
C         -8.96933        -0.67460        -0.37260
C         -7.57614        -1.35993        -0.38887
C         -6.41963        -0.57197        -0.94619
C         -5.11838        -1.33932        -1.13265
C         -3.80616        -0.61759        -0.87887
C         -2.70581        -1.42804        -0.21357
C         -1.44660        -0.75027         0.28605
C         -0.19141        -1.52073         0.59695
C          1.10158        -0.73793         0.46788
C          2.37782        -1.49440         0.24903
C          3.66889        -0.81002         0.60168
C          4.91913        -1.47573         0.08356
C          6.22197        -0.70342         0.13659
C          7.49944        -1.41498        -0.16544
C          8.81826        -0.71277         0.05501
C         10.14980        -1.47500         0.00728
C         11.38412        -0.70212         0.32656
C         -9.87459        -2.81985         0.54734
C         -8.88470        -3.60754        -0.28628
C         -7.56059        -2.85218        -0.40628
C         -6.42380        -3.64928        -1.06066
C         -5.11790        -2.84099        -1.17055
C         -3.79001        -3.60241        -1.17100
C         -2.64177        -2.90441        -0.46944
C         -1.45074        -3.72636         0.00540
C         -0.17979        -3.08067         0.66343
C          1.12546        -3.77588         0.24305
C          2.40394        -3.01392         0.15266
C          3.71974        -3.65439         0.61483
C          4.91679        -2.96212        -0.09122
C          6.21948        -3.67950        -0.38373
C          7.51103        -2.88788        -0.49001
C          8.85004        -3.65705        -0.28548
C         10.02294        -2.91506         0.15185
C         -8.64575        -5.02982         0.20577
C         -7.46366        -5.68149         0.13827
C         -6.22329        -4.94308        -0.26383
C         -4.91457        -5.67368        -0.34406
C         -3.76902        -5.10631        -1.16843
C         -2.39793        -5.84805        -1.26226
C         -1.37370        -5.17798        -0.34856
C         -0.08175        -5.94396        -0.11717
C          1.15146        -5.28037         0.44293
C          2.48475        -6.08186         0.58411
C          3.78058        -5.19715         0.62466
C          5.08246        -5.89588         0.34445
C          6.29289        -5.16394        -0.17276
C          7.61648        -5.82284         0.02507
C          8.76965        -5.11547        -0.01170
C         -7.43880        -7.19553         0.38279
C         -6.06827        -7.83254         0.57035
C         -4.82686        -7.06867         0.22735
C         -3.63810        -7.90735        -0.13099
C         -2.51972        -7.32401        -0.90274
C         -1.21047        -8.09547        -1.14241
C          0.04665        -7.23714        -0.85771
C          1.38114        -7.89749        -0.94481
C          2.66088        -7.11442        -0.57180
C          3.83451        -8.05477        -0.31474
C          5.10607        -7.37569         0.04084
C          6.40718        -7.95978        -0.50268
C          7.61576        -7.33856         0.22880
C         -5.94694        -9.32187         0.53113
C         -4.76357        -9.96694         0.53765
C         -3.44632        -9.21045         0.63983
C         -2.18681        -9.96913         0.23714
C         -1.12455        -9.41892        -0.40446
C          0.19258       -10.05583        -0.54897
C          1.34866        -9.39641        -0.86044
C          2.64253       -10.19050        -0.97467
C          3.91809        -9.33026        -1.14254
C          5.17588       -10.09909        -0.75557
C          6.32041        -9.47122        -0.44509
O          1.48309         4.13812        -1.69580
O          6.79982        -0.57558        -1.17361
O          6.12819         4.61494         1.56629
O          4.58490         7.36083         1.46374
O         -0.78146         2.75824        -1.51880
O         -7.89745         1.00675         1.21509
O         -5.45335         5.64467         1.50418
O          4.59055         5.52524        -1.59291
O         -7.23310         3.75028        -1.31357
O          9.55148        -0.81661        -1.18211
O         -3.98543         9.25457        -1.60752
O         -3.39678         0.23758        -1.97709
O         -0.67358         5.52421        -2.06432
O         -4.99736         2.74187        -1.78165
O         -1.80608         7.87016        -1.99676
O          1.39753         8.21059        -2.19681
O          4.38433        -8.18126         1.01756
O         -5.22844        -4.75480         0.77332
O          1.67857        -0.88684        -0.87530
O          0.80724        -7.21524        -2.10891
O          2.52960         2.65410         1.57424
O          4.68848        -5.59203         1.71502
O         -1.06909        -1.09944         1.66283
O          6.07574        -4.60483        -1.50080
O          7.56269         2.24898         2.08564
O          1.73670        -3.48382        -1.04743
O         -1.98123        -4.76319         0.89726
O         -3.60027        -8.01409        -1.58936
O         -3.17981         3.42454         1.31499
O         -3.86926        -4.36330        -2.41509
O          5.39660         1.73451        -0.84173
O          0.32782         1.33785         1.85098
O          0.18903        -5.91525         1.31546
O          4.59314        -2.08418        -1.19929
O         -5.13080        -2.04438        -2.40571
O          3.21573         7.44213        -1.94887
O         -7.21095        -2.10186         0.79882
O         -2.45241         1.05796         1.34493
O         -5.75728         7.16749        -1.79340
O         -2.84763         5.84140         0.91238
O         -3.26408        -2.33140         0.76009
O         -9.42838        -0.56428        -1.67384
O          9.59205         0.74852         1.98003
O          8.32174        -3.23797        -1.60796
O          3.70505        -0.19806         1.90600
O         -5.26114        -7.18905         1.61400
O         -1.24847        -8.37780        -2.51105
O         -6.75229         0.27940        -2.07265
O         -3.21585        -8.88451         2.03192
H         -3.95046        -8.28427         2.31715
O          0.02918         9.85259         1.84900
H          0.86481        10.19718         2.22767
O         -6.84294        -4.00876        -2.39172
H         -6.43434        -3.36210        -3.01615
O         -9.46220        -3.75080        -1.60665
H         -8.72698        -3.96986        -2.22939
O          6.53864        -7.57211        -1.88770
H          5.75243        -7.91844        -2.37715
O          4.02884        -8.93099        -2.52378
H          3.67446        -9.68253        -3.05511
O          8.82525        -7.90014        -0.26499
H          8.76406        -7.88177        -1.24459
O          3.69166         3.06321        -1.84348
H          4.20266         3.69372        -2.39539
O          0.07311         7.17186         1.09779
H         -0.05365         8.04831         1.54084
O        -10.07820         2.82174         2.22852
H         -9.75278         3.66275         2.61102
O        -10.67332         1.60248        -1.11029
H        -10.44418         0.74976        -1.59296
O          2.39577        -6.82010         1.79327
H          2.08945        -6.23401         2.51492
O         -7.79218         6.07288         2.16882
H         -6.87332         6.17561         2.51949
O         -1.90709        -5.80943        -2.60045
H         -1.72818        -6.74706        -2.90931
O          2.57469       -11.05594        -2.11984
H          1.63571       -11.26142        -2.30899
O          3.08008        -6.32921        -1.70389
H          2.35152        -6.33203        -2.37203
O          7.84940         5.38120        -1.61627
H          7.12768         5.76591        -2.15812
O         -0.21463        -3.38695         2.06084
H         -1.03779        -3.00119         2.43678
O          3.79697        -3.23599         1.99813
H          4.27073        -3.93892         2.50315
O          6.14849         0.09894         2.36401
H          6.36551         0.85420         2.95589
O          8.77668         5.51177         1.91115
H          7.95099         5.14729         2.30628
O         -8.03394        -7.84535        -0.74609
H         -8.87213        -7.39019        -0.96830
O          3.65707        10.01595        -2.13262
H          2.85168         9.58510        -2.51715
O          2.41559         5.77827         1.33340
H          3.16763         6.32473         1.69643
H         12.34320        -1.23746         0.26625
H         12.31695         1.19576         0.51047
H         10.98021         3.42447         0.49576
H          9.78458         5.50173         0.11272
H          8.45308         7.81165        -0.31164
H          7.14086         9.95343         0.21429
H          5.14746        11.18402        -0.20002
H          2.58853        11.07309         0.38832
H          0.06867        11.17803         0.22748
H         -2.41837        11.11115         0.66566
H         -4.96135        11.23538         0.72772
H         -7.09723        10.09299         0.79133
H         -8.40457         8.07225         0.78366
H         -9.86912         5.63471         0.75265
H        -11.06934         3.47052         0.50077
H        -11.96808         1.13203         1.56754
H        -11.71077        -1.27815         1.77299
H        -10.61900        -3.38071         1.13510
H         -9.54828        -5.59902         0.48813
H         -8.06176        -7.41193         1.30122
H         -6.88363        -9.89555         0.46507
H         -4.74384       -11.06719         0.51200
H         -2.06022       -10.95514         0.71525
H          0.24327       -11.14421        -0.37185
H          2.75555       -10.82199        -0.04468
H          5.13194       -11.19928        -0.76305
H          7.22980       -10.04226        -0.20273
H          7.55053        -7.56480         1.32557
H          9.71933        -5.65323         0.13766
H         10.77079        -3.44031         0.76503
