         280
 CSIRO Nanostructure Databank - Neutral Graphene Oxide Data Set
C         30.43953        31.67343        -0.67675
C         30.36487        32.92791        -0.53219
C         30.43852        35.79548         0.79134
C         30.30613        37.01143         0.49607
C         29.94469        40.30749         0.11761
C         30.18265        41.52859         0.34759
C         32.83059        28.76512        -0.87549
C         31.75949        29.40977        -0.89318
C         32.82414        31.52443        -0.74200
C         31.54316        30.80762        -0.79022
C         32.75731        33.05877        -0.66933
C         31.57032        33.58431         0.20174
C         32.71287        35.87623         0.02276
C         31.59703        35.08511         0.27329
C         32.68868        37.40530         0.26939
C         31.17272        38.02759         0.06943
C         32.80592        40.31195         0.20416
C         30.88180        39.30827        -0.34468
C         32.39293        41.32056         1.10866
C         31.27919        42.18760         0.97820
C         32.79040        44.07089         1.59109
C         31.71508        43.50946         1.36468
C         35.59032        27.29760        -0.52384
C         35.37432        28.68987        -0.59149
C         34.18016        29.35482        -1.23917
C         35.30647        31.59755        -0.79977
C         34.03107        30.86024        -0.86591
C         35.29233        33.07432        -0.66458
C         34.03552        33.71763        -0.14620
C         35.15459        35.93948        -0.47668
C         33.99396        35.23736        -0.27397
C         35.17607        37.42525        -0.47704
C         33.83658        38.18675        -0.47000
C         35.24263        40.17314         0.62337
C         33.99179        39.57694         0.20851
C         35.32168        41.61116         1.00422
C         34.36925        42.31019         1.66670
C         35.24658        44.57298         0.99611
C         34.26123        43.83356         1.87508
C         35.43524        45.92041         0.94710
C         37.86733        27.27117         0.16602
C         36.64886        26.68096        -0.23914
C         37.75715        28.72279         0.22705
C         36.53139        29.37897        -0.17080
C         37.66100        31.66713         0.20675
C         36.56032        30.84440        -0.38980
C         37.69657        33.10663        -0.19011
C         36.45982        33.77023        -0.68192
C         37.70740        35.88300        -0.30627
C         36.45077        35.26297        -0.92686
C         37.71028        37.31400         0.11080
C         36.46357        38.12869        -0.12045
C         37.73643        40.21298         0.59941
C         36.43980        39.51860         0.39307
C         37.79241        41.70063         0.47144
C         36.46479        42.36528         0.41672
C         37.71137        44.56351        -0.09355
C         36.37725        43.84398         0.28456
C         37.75633        46.07248         0.26412
C         36.51348        46.52840         0.54429
C         40.39607        24.42063         0.11670
C         39.46423        25.30548         0.28780
C         40.14821        27.43080         1.26558
C         39.08693        26.60395         0.45965
C         40.18511        28.84096         0.72204
C         38.94493        29.47719         0.47101
C         40.22281        31.65356         0.14001
C         38.95123        30.97590         0.64379
C         40.19361        33.04915        -0.23271
C         39.00961        33.74955        -0.33032
C         40.23866        35.85255         0.09242
C         39.03727        35.22103        -0.68016
C         40.19737        37.36104        -0.00742
C         39.02022        38.02805         0.10427
C         40.18276        40.35898        -0.10576
C         39.02270        39.48731         0.38367
C         40.28256        41.64058         0.75016
C         38.95591        42.40036         0.57203
C         40.27076        44.52685         0.10446
C         38.93155        43.92664         0.64478
C         40.23971        46.05712         0.08977
C         39.02407        46.73555         0.09483
C         40.14726        48.76052        -0.73406
C         39.17854        48.10650        -0.31775
C         42.93051        24.37528         0.56572
C         41.54762        24.49932         0.89216
C         42.68733        27.36037         0.98256
C         41.50307        26.77422         1.34332
C         42.68250        28.80158         0.58930
C         41.39859        29.54714         0.61483
C         42.69096        31.72907         0.38312
C         41.41720        30.95402         0.32758
C         42.71723        33.08465        -0.24056
C         41.44805        33.74096        -0.79387
C         42.70813        35.89721        -0.36359
C         41.53027        35.22173        -0.36830
C         42.75635        37.31872         0.18575
C         41.48448        38.08139        -0.18313
C         42.75179        40.31797         0.03456
C         41.49564        39.59027        -0.18843
C         42.72745        41.72833         0.18787
C         41.54181        42.42679         0.42511
C         42.81515        44.67569         0.62728
C         41.50212        43.89199         0.82483
C         42.81181        46.15054         0.14052
C         41.49793        46.70511        -0.38954
C         42.76863        48.76808        -1.07281
C         41.44072        48.14983        -1.03853
C         43.80496        25.23555         0.80752
C         45.16975        27.33375         1.04049
C         43.98518        26.64901         0.94249
C         45.20651        28.83468         1.11111
C         43.98207        29.55611         0.62137
C         45.27787        31.69520         0.28635
C         43.99231        31.06398         0.84980
C         45.27173        32.96564        -0.31121
C         44.02962        33.69855        -0.60963
C         45.27783        35.96379        -0.31512
C         44.01578        35.23852        -0.65169
C         45.28688        37.30570        -0.08313
C         44.00749        38.10447        -0.30895
C         45.29435        40.31049         0.03884
C         44.02128        39.52679         0.30450
C         45.28495        41.66806         0.06451
C         43.99718        42.48745        -0.16868
C         45.27950        44.44990         0.65177
C         44.06250        43.86911         0.47335
C         45.29947        46.64217         0.38867
C         44.09479        46.89811        -0.20979
C         43.79121        48.05672        -0.99611
C         47.58323        27.44138         1.36915
C         46.51925        26.86710         1.10798
C         47.90774        28.90429         1.28339
C         46.50957        29.60849         1.10387
C         47.75596        31.53063         0.10846
C         46.49821        30.96849         0.47229
C         47.83486        32.89143        -0.55897
C         46.53598        33.68221        -0.58695
C         47.82536        35.85248         0.06745
C         46.55515        35.19389        -0.45955
C         47.82481        37.32693        -0.25137
C         46.57096        38.04964         0.26482
C         47.86606        40.22609         0.13626
C         46.55256        39.49820        -0.28135
C         47.83383        41.73444        -0.23855
C         46.58611        42.41609         0.35819
C         47.83899        44.64681         0.06117
C         46.50297        43.89206        -0.06761
C         47.58321        46.04528         0.02460
C         46.64696        46.86920        -0.07262
C         50.18833        28.68843         0.15562
C         48.79295        29.25740         0.08679
C         50.20742        31.53258         0.48651
C         48.93887        30.79151         0.10722
C         50.31968        32.90768        -0.19227
C         49.07227        33.70594        -0.21682
C         50.36701        35.80317        -0.26710
C         49.10207        35.08131        -0.27107
C         50.30174        37.26942        -0.72848
C         49.15836        38.03270        -0.02128
C         50.40261        40.26380        -0.17350
C         49.10377        39.52157        -0.49626
C         50.38780        41.78936        -0.35406
C         49.13519        42.45174         0.26631
C         50.36775        44.50191         0.03680
C         49.04762        43.98870         0.05408
C         51.23643        29.35098         0.31602
C         52.63535        31.56913         0.43322
C         51.54728        30.71359         0.39858
C         52.68642        32.84515         0.54981
C         51.64815        33.66428        -0.10486
C         52.68013        36.02870         0.00811
C         51.56729        35.12342        -0.08803
C         52.69021        37.26507        -0.02174
C         51.69421        38.13861        -0.72963
C         52.73801        40.38002        -0.01533
C         51.58082        39.54549        -0.19370
C         52.76395        41.61816         0.23914
C         51.72392        42.53972         0.12796
C         51.47514        43.90426         0.22943
O         37.28116        32.64896         1.22358
O         46.60483        34.57354        -1.77082
O         44.03338        34.43853        -1.86108
O         41.52947        38.79480        -1.45138
O         36.00038        42.98554        -0.85780
O         45.74597        29.42057         2.33979
O         37.56609        36.22824         1.10875
O         31.97601        40.00645        -0.88950
O         33.27089        41.59762         2.18330
O         45.33352        45.63723         1.39481
O         36.30660        31.17218        -1.79164
O         41.32926        33.74952        -2.18047
O         42.79041        45.80083         1.56146
O         41.44788        25.49777         1.95425
O         38.53101        39.71813         1.74255
O         36.03347        38.00127        -1.54185
O         42.54183        32.96152         1.20921
O         41.39787        46.97009        -1.83854
O         43.47227        29.09676        -0.64613
O         51.16810        33.04260        -1.35077
O         44.03243        31.23234         2.28181
H         43.65042        32.11965         2.47798
O         34.55570        44.15584         3.23343
H         33.89979        43.70829         3.80750
O         39.63836        27.51819         2.61161
H         39.88825        26.69061         3.07736
O         43.87928        42.64792        -1.60405
H         44.62623        43.22940        -1.89606
O         37.87688        44.47709        -1.50802
H         37.22568        43.80482        -1.83699
O         48.08614        32.50117        -1.94823
H         47.78208        33.24850        -2.51517
O         40.47085        44.11560        -1.25463
H         39.65308        44.33235        -1.76929
O         48.50325        29.41585         2.46064
H         47.84266        29.33899         3.18455
O         38.72455        44.30337         2.01823
H         39.53685        44.05713         2.52599
O         39.24403        35.41725        -2.08037
H         40.00764        34.81784        -2.36170
O         47.95600        40.13954         1.57070
H         48.75891        40.65004         1.85658
O         52.09557        38.32358        -2.07384
H         52.16221        37.44606        -2.50637
O         41.29656        43.88545         2.27228
H         41.71951        44.71058         2.61762
O         34.37521        29.25897        -2.64110
H         33.66785        29.75534        -3.10176
O         49.30272        42.30240         1.69074
H         48.52933        42.73757         2.12940
O         33.45010        38.28781        -1.84024
H         34.24709        38.53830        -2.35818
O         50.04036        31.82766         1.89355
H         49.68220        31.01804         2.33447
O         43.93550        38.28587        -1.73060
H         43.94644        37.41092        -2.17215
O         42.80069        37.18422         1.61856
H         42.04349        36.61773         1.89368
O         39.05913        31.13989         2.09176
H         38.59496        31.98348         2.31483
O         46.49448        39.35195        -1.70654
H         46.54862        40.24565        -2.11312
O         48.97763        39.59245        -1.92978
H         49.45523        38.81565        -2.32516
O         50.34202        42.01082        -1.77397
H         51.07870        41.51388        -2.19031
O         32.56728        33.54495        -2.00507
H         31.66434        33.29585        -2.30139
O         44.02143        39.36660         1.75108
H         44.13872        40.24628         2.16623
O         40.14234        35.53549         1.50541
H         39.22526        35.77293         1.79680
O         39.83972        40.78708        -1.43874
H         40.27544        40.17048        -2.07190
O         49.46243        37.98315         1.39507
H         48.69989        38.42471         1.85270
O         31.60181        33.06000         1.50249
H         31.00912        33.59277         2.07220
O         46.60046        38.09843         1.71622
H         46.59368        37.16120         2.02738
O         47.73720        35.69231         1.53871
H         48.51839        36.17610         1.90157
O         34.11032        33.42375         1.27645
H         35.02773        33.59299         1.58524
O         36.51589        35.42148        -2.35837
H         36.55708        36.38681        -2.55083
O         32.94495        37.59343         1.66363
H         32.31809        37.03743         2.17394
O         48.09830        28.85922        -1.07584
H         48.58149        29.17441        -1.86737
O         46.68926        42.44408         1.80638
H         46.76423        41.50057         2.10301
O         46.18177        43.99096        -1.47876
H         46.83849        43.42897        -1.96450
O         49.94925        37.15498        -2.13427
H         49.07339        36.70940        -2.18493
O         47.71871        41.88138        -1.66215
H         48.51525        41.45771        -2.08065
O         40.45087        41.25271         2.13198
H         40.66905        42.06372         2.64523
