         324
 CSIRO Nanostructure Databank - Neutral Graphene Oxide Data Set
C          1.18962         3.45484        -0.88390
C         -0.01770         4.10346        -0.70317
C          1.12544         6.21247        -0.21315
C         -0.05453         5.47130        -0.38086
C          1.10572         7.65301         0.04454
C         -0.10035         8.38765         0.04382
C          1.06407        10.50670         0.34397
C         -0.12311         9.77218         0.20463
C          1.07915        11.96051         0.50223
C         -0.09761        12.69826         0.74649
C          1.14134        14.79938         0.70583
C         -0.05635        14.08530         0.85735
C          1.11567        16.30481         0.86911
C          0.00985        16.93946         0.03491
C          1.12820        19.13871         0.09807
C          0.00850        18.24552        -0.27887
C          1.23733        20.50843        -0.57882
C         -0.02837        21.33147        -0.51422
C          1.28114        23.40681        -0.75490
C          0.02479        22.67037        -0.67596
C          1.22111        24.89079        -0.85329
C          0.10597        25.60998        -1.48585
C          1.40057        27.70165        -1.54863
C          0.16889        26.95395        -1.69520
C          1.45585        29.12751        -1.81135
C          3.65148         3.51844        -0.92108
C          2.41456         4.16205        -0.71506
C          3.61350         6.23729        -0.10252
C          2.37928         5.54925        -0.35196
C          3.59052         7.64576         0.26356
C          2.32379         8.34896         0.24663
C          3.51468        10.48702         0.46283
C          2.30157         9.78137         0.36171
C          3.54902        11.92476         0.21347
C          2.29972        12.67482         0.39418
C          3.61886        14.79369         0.42144
C          2.34395        14.08751         0.48607
C          3.60864        16.23997         0.40023
C          2.44066        16.96608         0.54638
C          3.66761        19.09635        -0.01664
C          2.43398        18.44184         0.47108
C          3.70963        20.53832        -0.35021
C          2.44771        21.32246        -0.03623
C          3.75197        23.47667        -0.43756
C          2.48263        22.76265        -0.53341
C          3.80468        24.88100        -0.62130
C          2.54835        25.64556        -0.77869
C          3.86966        27.70699        -1.41586
C          2.57510        27.02278        -1.27141
C          3.87652        29.18532        -1.42153
C          2.61754        29.83747        -1.69522
C          6.10841         3.56337        -0.97128
C          4.87607         4.20975        -0.75585
C          6.08830         6.19937         0.16748
C          4.83295         5.57313        -0.28182
C          6.06559         7.63583         0.67498
C          4.76923         8.32263         0.57670
C          6.06624        10.53848         0.89224
C          4.73732         9.77202         0.78705
C          6.11422        11.97581         0.61340
C          4.88594        12.68054         0.26418
C          6.10630        14.86500         0.50226
C          4.84721        14.14915         0.38451
C          6.12319        16.31083         0.33108
C          4.87114        16.91678         0.14274
C          6.53944        19.31225        -0.26892
C          4.70344        18.25880        -0.35082
C          6.28192        20.62726         0.06875
C          5.03134        21.31690        -0.30030
C          6.13457        23.52462         0.14716
C          4.96407        22.79357        -0.14137
C          6.19860        24.92116        -0.09020
C          5.03150        25.56908        -0.55997
C          6.30673        27.75187        -0.62388
C          5.12195        26.97108        -1.01371
C          6.28656        29.19146        -0.83273
C          5.05938        29.85533        -1.21121
C          8.65490         3.65593        -1.10860
C          7.35824         4.30438        -1.00001
C          8.64862         6.30312         0.05517
C          7.36949         5.71885        -0.41552
C          8.60571         7.67380         0.51414
C          7.34827         8.39750         0.66719
C          8.54385        10.56068         1.05280
C          7.32506         9.77297         0.80733
C          8.55561        12.02614         0.89814
C          7.31802        12.70650         0.72935
C          8.49726        14.85968         1.25174
C          7.28927        14.15115         0.69309
C          8.52298        16.34453         0.96215
C          7.41962        17.03293         0.48259
C          8.65448        19.21578         0.84130
C          7.53581        18.49867         0.36548
C          8.62928        20.65128         0.91626
C          7.32865        21.32761         0.81435
C          8.59143        23.56649         0.80420
C          7.30534        22.86531         0.75321
C          8.60571        24.98562         0.52826
C          7.43141        25.66422         0.12893
C          8.61694        27.90149         0.19588
C          7.40980        27.09775        -0.09567
C          8.67916        29.32099        -0.26144
C          7.44324        29.93696        -0.64232
C         11.04172         3.60331        -1.23793
C          9.84713         4.27101        -0.75968
C         11.08452         6.25546         0.31385
C          9.85361         5.59256        -0.09660
C         11.06392         7.69236         0.49081
C          9.82471         8.37562         0.61754
C         11.08079        10.58826         0.73814
C          9.85798         9.80517         0.98511
C         11.05670        12.01278         0.75737
C          9.80241        12.73642         0.88123
C         11.04060        14.88151         0.97087
C          9.80713        14.14689         0.93838
C         11.04473        16.26964         1.15357
C          9.77483        17.03524         1.48105
C         11.03647        19.22556         1.32856
C          9.86267        18.51692         1.17862
C         11.05744        20.68500         1.24553
C          9.78811        21.40858         1.14946
C         11.02555        23.60710         1.45835
C          9.75621        22.85016         1.10890
C         11.04130        25.05312         0.99322
C          9.87750        25.68648         0.64071
C         11.17456        27.82671         0.15470
C          9.88031        27.16674         0.49727
C         11.16608        29.33733        -0.13714
C          9.86116        30.02300        -0.22108
C         13.53143         3.31870        -1.20538
C         12.29033         3.66756        -0.63632
C         13.55166         6.23813         0.79343
C         12.28818         5.57868         0.58746
C         13.52953         7.70827         0.92467
C         12.27134         8.43077         0.62606
C         13.53975        10.57844         0.46850
C         12.27276         9.84334         0.62984
C         13.53572        12.03833         0.66344
C         12.28153        12.75484         0.69656
C         13.55244        14.87775         0.88622
C         12.30381        14.16625         0.84807
C         13.58902        16.25785         1.07031
C         12.31871        16.96837         1.37516
C         13.58889        19.19406         1.24940
C         12.30298        18.46890         1.52824
C         13.54791        20.67388         1.12346
C         12.25035        21.38038         1.19465
C         13.55224        23.58652         0.87382
C         12.25539        22.85220         0.99356
C         13.63953        25.06265         1.09359
C         12.32561        25.81200         1.10187
C         13.61864        27.87161         0.46078
C         12.40448        27.20033         0.61588
C         13.60464        29.31796         0.27805
C         12.41283        30.02716         0.13765
C         15.99734         3.68866        -1.23994
C         14.77273         3.68540        -0.61100
C         16.10074         6.20983         0.75878
C         14.76004         5.55658         0.74886
C         16.15203         7.70973         0.92737
C         14.83691         8.43103         0.95770
C         16.08363        10.56765         0.85944
C         14.84847         9.84568         0.49745
C         15.88799        11.87492         1.23949
C         14.73827        12.67835         0.92580
C         16.13483        14.93976         1.02447
C         14.85569        14.15545         0.55426
C         16.01683        16.36619         0.51390
C         14.80099        16.99215         0.78498
C         15.83346        19.18086        -0.05311
C         14.66167        18.43912         0.52206
C         15.89585        20.67984         0.01465
C         14.69308        21.40618         0.49003
C         16.13393        23.52347         0.74894
C         14.83299        22.81919         0.94970
C         16.07197        25.00141         0.57347
C         14.90221        25.73515         0.66816
C         16.07948        27.88724         0.21091
C         14.88867        27.18154         0.49820
C         16.07575        29.35028         0.27522
C         14.85159        30.00892         0.36831
C         18.47928         3.81590        -1.36506
C         17.25091         4.19370        -0.65000
C         18.54631         6.32988         0.06035
C         17.32544         5.50909         0.21805
C         18.56150         7.75702         0.26466
C         17.37824         8.49407         0.59302
C         18.59314        10.65901         0.45913
C         17.37871         9.89995         0.74135
C         18.66862        12.10774         0.38543
C         17.70047        12.98297         0.96247
C         18.45501        14.94248        -0.17769
C         17.43249        14.27839         0.56412
C         18.35690        16.34406        -0.43566
C         17.13453        17.06275        -0.07503
C         18.25483        19.20988        -0.65508
C         17.08671        18.45174        -0.28879
C         18.35759        20.58307        -0.42623
C         17.21619        21.36709        -0.00021
C         18.47349        23.47404        -0.27296
C         17.28456        22.73705         0.20827
C         18.61116        24.92863         0.02513
C         17.35249        25.70428         0.41535
C         18.42305        27.64690        -0.57341
C         17.29882        27.12795         0.04045
C         18.46552        29.78452        -0.22106
C         17.28581        30.14555         0.41147
C         19.65955         4.42839        -1.10554
C         20.93842         6.42486        -0.47168
C         19.71508         5.70479        -0.43064
C         20.96656         7.77758        -0.22546
C         19.76686         8.48935         0.04739
C         20.85898        10.64500        -0.49871
C         19.74654         9.93508         0.04655
C         20.82388        11.99830        -0.73691
C         19.71245        12.77492        -0.31146
C         20.68376        14.91610        -1.15854
C         19.62925        14.20648        -0.53809
C         20.58097        16.27477        -1.41117
C         19.43220        17.00787        -1.05170
C         20.60706        19.21137        -1.56668
C         19.30115        18.46498        -1.45790
C         20.77329        20.47020        -1.14979
C         19.74007        21.22007        -0.34758
C         20.98565        23.48537        -0.64301
C         19.72999        22.71601        -0.64625
C         20.98322        24.85523        -0.69089
C         19.79703        25.63370        -0.50883
C         20.85134        27.92394        -0.76107
C         19.73059        27.04885        -0.62805
C         20.87767        29.28688        -0.41517
C         19.82608        30.11663         0.01048
O         14.25123        10.14415        -0.79734
O         14.01781        20.02110         2.37289
O          4.39068        20.90808        -1.56856
O          6.11534         6.48789         1.59428
O          5.28622        10.20928         2.10474
O         16.35904         6.83347         2.07519
O         13.08314        25.54942         2.34247
O          9.12376        27.79147         1.59045
O         16.89846        12.47605         1.99765
O          7.28193         5.55393        -1.84687
O          1.56879        19.09028         1.48077
O          1.66977        25.50840         0.40268
O         18.28678        28.85050        -1.26790
O          4.30427        12.22491        -1.03069
O         12.34680        17.64907         2.74438
O          4.75298        27.11330        -2.44411
O         14.74023         4.17005         0.71993
O         18.34441        25.29117         1.42618
O         14.92006        21.27439        -0.93526
O         15.67405        23.05632         2.09644
O          9.23633        10.10443         2.27729
O          6.94889        22.12387         1.97299
O          5.71563        18.69720        -1.21570
O         17.46421         4.18165         0.79177
O         18.78882        23.14295        -1.67662
O         11.26219        28.31192        -1.21912
O         12.77084        23.25031        -0.32570
O         14.10805         8.22742         2.20210
O         14.72067        18.72997        -0.91490
O         12.30015         4.20016         0.67767
O         11.10933        23.61796         2.90991
H         10.37234        24.16035         3.26058
O          2.39208        21.45252         1.39741
H          1.57580        21.93903         1.63602
O          0.80495        16.56776         2.26770
H          0.92203        17.54029         2.40005
O          9.68693        16.99325         2.96079
H         10.58328        17.26927         3.29017
O          8.32837        14.71481         2.70612
H          8.85707        15.43747         3.13440
O         18.75960        18.42210        -2.81964
H         18.49510        19.33370        -3.06696
O         14.96672        14.13628        -0.89779
H         14.18496        13.67156        -1.26425
O          1.48279        20.21117        -1.97512
H          1.72388        21.04347        -2.43358
O         20.14413        21.13863         1.05252
H         20.17552        20.19341         1.30976
O         16.12356        15.03372         2.46175
H         16.36008        14.14630         2.81874
H          1.21802         2.38992        -1.15488
H         -0.96165         3.55429        -0.82517
H         -1.03453         5.95218        -0.26230
H         -1.05742         7.86889        -0.09976
H         -1.09335        10.28726         0.18967
H         -1.05880        12.18147         0.87084
H         -0.98384        14.63018         1.08176
H         -0.83563        16.30915        -0.27986
H         -0.80147        18.66698        -0.89365
H         -1.00068        20.82033        -0.45603
H         -0.90934        23.25020        -0.70144
H         -0.79592        25.05222        -1.77699
H         -0.70412        27.48208        -2.10660
H          0.51569        29.64835        -2.04402
H          3.66702         2.46426        -1.23439
H          2.61174        30.93013        -1.82138
H          6.12953         2.47949        -1.15493
H          5.07726        30.95376        -1.28066
H          8.68553         2.63225        -1.50991
H          7.43353        31.01673        -0.85349
H         10.93422         2.99580        -2.14867
H          9.85700        31.10366        -0.43141
H         13.54396         2.90926        -2.22468
H         12.41478        31.12379         0.22266
H         16.06244         3.31562        -2.27187
H         14.83754        31.10874         0.39741
H         18.43294         2.96603        -2.06154
H         17.24739        31.03390         1.05992
H         20.58442         4.06594        -1.57827
H         21.85832         5.89561        -0.75826
H         21.92724         8.30497        -0.27985
H         21.74460        10.08868        -0.83075
H         21.67335        12.47083        -1.24692
H         21.60322        14.39469        -1.45556
H         21.41759        16.77806        -1.91328
H         21.41483        18.73395        -2.14171
H         21.73812        20.97201        -1.32261
H         21.94213        22.94391        -0.64672
H         21.93998        25.38288        -0.81822
H         21.83420        27.45888        -0.93362
H         21.88748        29.72193        -0.33416
H         20.07544        31.03606         0.56027
