         273
 CSIRO Nanostructure Databank - Neutral Graphene Oxide Data Set
C        -11.19714         0.91103         0.20372
C        -10.21598         1.59352        -0.72075
C         -8.89428         0.81830        -0.81886
C         -7.58670         1.53904        -0.73359
C         -6.24022         0.81061        -0.65499
C         -5.20303         1.56282        -1.53891
C         -3.86974         0.78760        -1.47595
C         -2.63175         1.61398        -1.84819
C         -1.30198         0.82313        -1.77218
C          0.01565         1.57735        -1.55714
C          1.19044         0.75800        -0.88875
C          2.49483         1.53655        -1.10244
C          3.75200         0.84387        -0.88461
C          4.93930         1.59003        -0.70671
C          6.04575         1.10682         0.19763
C          7.41992         1.51921        -0.43894
C          8.48232         0.87522         0.38988
C         10.32635         1.93685         0.16490
C         11.30737         0.88079        -0.03762
C        -10.03680         3.08508        -0.47460
C         -8.84456         3.72101        -0.30610
C         -7.60439         2.88547        -0.04081
C         -6.34717         3.66395        -0.35804
C         -5.16195         3.03938        -1.05098
C         -3.83576         3.71573        -0.85317
C         -2.57681         3.00388        -1.18542
C         -1.42469         3.38525        -0.27239
C         -0.07630         2.81049        -0.65934
C          1.20555         3.57671        -0.59509
C          2.44705         2.91376        -1.07209
C          3.64452         3.70977        -1.33536
C          5.01388         2.96096        -1.19701
C          6.27778         3.77784        -1.05414
C          7.54189         3.04451        -0.68321
C          8.74402         3.84964        -0.10546
C         10.04403         3.11793        -0.44821
C         -8.72280         5.17147        -0.19233
C         -7.53793         5.81510         0.08476
C         -6.29043         5.00367         0.35436
C         -5.00047         5.74098         0.02726
C         -3.82106         4.75941         0.25619
C         -2.52233         5.51155         0.36796
C         -1.37043         4.88159         0.00930
C         -0.05426         5.56231         0.30464
C          1.08022         5.07926        -0.62464
C          2.40367         5.83735        -0.57796
C          3.61631         5.20887        -1.19184
C          4.92672         5.97335        -1.04875
C          6.20749         5.25244        -0.89401
C          7.39340         5.96424        -0.55785
C          8.74811         5.28243        -0.68128
C         -7.39350         7.22862         0.36736
C         -6.21072         7.75554         0.84569
C         -5.03423         6.83343         1.07812
C         -3.69309         7.49359         1.28131
C         -2.52884         6.84159         0.96475
C         -1.16023         7.34907         1.38860
C         -0.12273         7.09688         0.30460
C          1.28821         7.43491         0.82037
C          2.40727         7.12156        -0.12239
C          3.55061         8.05235        -0.25824
C          4.87579         7.43089        -0.64329
C          6.14776         8.10553        -0.19846
C          7.37365         7.29365        -0.16005
C         -6.07385         9.12137         1.28994
C         -4.90137         9.61916         1.77971
C         -3.65162         8.87101         1.76482
C         -2.46289         9.46480         2.08393
C         -1.09851         8.82138         1.95535
C         -0.26137         9.71232         0.98252
C          1.05793         9.82802         0.97496
C          2.35559        10.08199         1.09838
C          3.51925         9.44077         0.38526
C          4.84485         9.95857         0.82364
C          6.02144         9.33539         0.61249
C        -11.11508        -0.41013         0.46871
C         -9.94930        -1.21205         0.10761
C         -8.87292        -0.62662        -0.49348
C         -7.54919        -1.36584        -0.42912
C         -6.39627        -0.64091        -1.09789
C         -5.14818        -1.36570        -1.50231
C         -3.85965        -0.58252        -1.47047
C         -2.57212        -1.36620        -1.16653
C         -1.30751        -0.67179        -1.68968
C          0.00368        -1.42854        -1.57439
C          1.29017        -0.64802        -1.45269
C          2.58240        -1.34247        -1.11126
C          3.71004        -0.54901        -0.60122
C          4.78286        -1.20463         0.16370
C          6.06430        -0.44668         0.53972
C          7.34327        -1.22402         0.31582
C          8.58555        -0.50877         0.38589
C          9.86116        -1.16578         0.52070
C         11.10497        -0.44590         0.25062
C         -9.86078        -2.64509         0.59201
C         -8.96273        -3.54637        -0.28673
C         -7.70696        -2.82044        -0.83685
C         -6.46278        -3.58188        -1.18632
C         -5.14273        -2.90872        -1.65800
C         -3.87764        -3.58291        -1.14064
C         -2.57791        -2.87834        -1.58429
C         -1.33580        -3.54123        -0.96581
C         -0.01007        -2.88474        -1.25209
C          1.22111        -3.48733        -0.58646
C          2.55508        -2.83901        -0.96283
C          3.75205        -3.54188        -0.42022
C          4.83371        -2.71174         0.21224
C          6.12183        -3.40156         0.59630
C          7.39332        -2.64065         0.51800
C          8.61821        -3.29056         0.69199
C          9.84124        -2.55674         0.63710
C         -8.54229        -4.78432         0.46846
C         -7.43454        -5.51551         0.17030
C         -6.43490        -5.06093        -0.85533
C         -5.16233        -5.85264        -0.95455
C         -3.87173        -5.06742        -0.90635
C         -2.54537        -5.82805        -1.11387
C         -1.34017        -4.99871        -0.67419
C         -0.03500        -5.74527        -0.63904
C          1.26339        -5.00446        -0.70275
C          2.51059        -5.67961        -0.23809
C          3.65362        -4.97793        -0.00266
C          4.97730        -5.67374         0.10864
C          6.18006        -4.89769         0.54197
C          7.47792        -5.61750         0.68248
C          8.69275        -4.76866         1.05293
C         -7.00468        -6.52410         1.13266
C         -5.87260        -7.26925         0.99518
C         -5.18353        -7.28899        -0.36029
C         -3.82129        -7.99259        -0.29426
C         -2.52654        -7.26807        -0.54576
C         -1.30662        -7.80068         0.11682
C         -0.09161        -7.03406         0.12423
C          1.24440        -7.73133         0.49041
C          2.40819        -7.17708        -0.21279
C          3.84375        -7.75660         1.00098
C          5.04381        -7.15179         0.25042
C          6.38576        -7.89629         0.37973
C          7.51986        -6.96656         0.78547
C         -5.40176        -8.13406         2.06340
C         -4.41476        -9.03815         1.89263
C         -3.82221        -9.29843         0.51522
C         -2.46372        -9.92304         0.59977
C         -1.26529        -9.20572         0.49103
C         -0.03189        -9.88960         0.66222
C          1.23309        -9.16817         1.03776
C          2.55105        -9.90441         0.84445
C          3.74134        -9.26037         0.93582
C          5.04743        -9.87675         1.19479
C          6.21706        -9.19724         1.14046
O          0.94701         0.60741         0.46802
O         -6.14384        -0.86498        -2.49912
O         -1.29989        -0.01801        -2.97768
O          0.71461         2.85565         0.57277
O          9.37460         1.56877         1.17820
O          4.25288        -1.95517         1.31381
O         -3.93040        -4.10001         0.21142
O         -3.07874         4.06989        -2.04450
O          7.29150         3.34186        -2.08602
O          5.02269        -6.55644        -1.09893
O          3.57093        -7.17147         2.09138
O          0.64179        -6.82739         1.43074
O         -1.48245        -4.02878         0.40818
O          6.36516        -0.58470         1.91485
O          4.21021         5.84808        -2.35274
O         -3.14370        -8.16929        -1.56538
O          2.22513        -0.87362        -2.50245
O          0.16761         5.34131         1.74143
O          0.71032        -5.66869        -1.88667
O          3.28905         9.25962        -1.04260
O         -6.07501        -5.79511        -2.08709
O          3.49500        -3.47532        -1.87280
O         -6.24437         4.90580         1.82892
O         -7.47809        -3.21773        -2.20706
O          5.61978         8.25610        -1.57819
O         -0.71620         6.36701         2.41731
O          4.37668         3.21448        -2.48355
O          0.13386        -2.45567        -2.61606
O         -8.19468         1.31330        -2.02562
O         -6.12169         3.86585        -1.78740
O          1.57509         7.55075         2.00793
O          5.92378        -4.19061         1.81272
O          0.55601         5.39085        -1.95786
H          1.19611         5.07962        -2.63508
O         -2.81891         1.85417        -3.25966
H         -3.68885         2.30082        -3.38294
O         -6.01274        -8.12183        -1.20311
H         -6.37527        -7.54122        -1.91939
O          0.43887         2.04792        -2.84419
H          0.06665         1.43900        -3.52334
O         -0.50281         8.82015         3.24472
H          0.33422         8.29843         3.18512
O         -5.38012         6.05248         2.30307
O         -1.77034         2.71412         0.96388
H         -0.96315         2.67884         1.52702
O         -9.33343        -2.64934         1.93942
H         -9.92190        -2.10173         2.50017
O         -7.61919         2.55022         1.37197
H         -7.27232         3.31591         1.88488
O         -3.99894         3.99484         1.46016
H         -3.87020         4.58092         2.23707
O         -5.69345         0.85450         0.66534
H         -6.23116         0.26829         1.24762
O         -2.38809        -5.93854        -2.54009
H         -2.75821        -6.80956        -2.81800
O         -4.68500       -10.26097        -0.13401
H         -5.39317        -9.76441        -0.60949
O         -0.44828         7.69821        -0.93277
H         -0.13692         7.11301        -1.66462
O          8.55804         4.02755         1.30243
H          8.71042         3.16862         1.76043
O         -9.78278        -3.92997        -1.40366
H         -9.18129        -4.07662        -2.17134
O          9.16027         5.28097        -2.04664
H          8.46609         4.81390        -2.56755
O        -10.83282         1.50015        -2.03785
H        -10.11550         1.67177        -2.68954
O         -2.43681        -2.99512        -2.99363
H         -3.32521        -2.94251        -3.42087
O         -4.97195         6.29427        -1.27830
H         -5.19850         5.57890        -1.92019
O          1.11365        -3.19791         0.82606
H          0.21155        -3.45346         1.13694
O         -5.59877         1.65899        -2.90921
H         -5.87562         0.76227        -3.21639
O          5.89683         1.80608         1.43485
H          6.04066         1.10661         2.13780
O          9.88646        -5.35572         0.53101
H          9.79437        -5.44848        -0.43896
O          1.10297        -9.08380         2.49360
H          0.88494        -8.14631         2.71509
O         -2.41652        -1.33791         0.27097
H         -2.93818        -2.06213         0.68034
O          6.76872        -8.36143        -0.94710
H          6.51462        -7.65403        -1.58345
O          7.47533         0.84414        -1.71752
H          7.25263         1.52164        -2.40488
O          2.72823        -7.81803        -1.37501
H          3.43351        -7.30699        -1.84230
O         -5.08883        -3.15373        -3.08200
H         -5.91204        -2.76745        -3.46407
O         -7.13640        -1.40436         0.97430
H         -7.85789        -1.82888         1.51514
H         11.98077        -1.10300         0.11940
H         12.29405         1.17678        -0.42583
H         10.66365         3.51045        -1.26769
H          9.50499         5.87463        -0.10971
H          8.31317         7.77795         0.14542
H          6.94283         9.75599         1.04337
H          4.83450        10.86775         1.44530
H          2.63892        10.93194         1.74836
H         -0.83453        10.24010         0.19871
H         -2.46795        10.50330         2.44969
H         -4.86172        10.66040         2.13307
H         -6.96415         9.76774         1.25554
H         -8.26988         7.88404         0.24375
H         -9.64370         5.76515        -0.30749
H        -10.95039         3.68893        -0.59975
H        -12.07389         1.48465         0.53883
H        -11.90529        -0.90623         1.05405
H        -10.88720        -3.09739         0.61469
H         -9.16748        -5.10426         1.31631
H         -7.59201        -6.60076         2.06073
H         -5.88908        -8.02697         3.04520
H         -4.10834        -9.68260         2.72926
H         -2.42611       -11.00403         0.79760
H         -0.08084       -10.96407         0.89887
H          2.51899       -11.00545         0.87286
H          5.04404       -10.90701         1.58592
H          7.14472        -9.71279         1.43279
H          8.49241        -7.44442         0.98759
H          8.78996        -4.80737         2.17340
H         10.78424        -3.12033         0.69864
