         280
 CSIRO Nanostructure Databank - Neutral Graphene Oxide Data Set
C         30.40787        31.60160        -0.65727
C         29.51828        32.22546        -1.29965
C         30.39451        36.07493         0.64428
C         30.34088        37.30825         0.53524
C         30.48347        40.37206        -0.62664
C         30.65841        41.42407        -1.31439
C         32.72350        28.96927        -0.53912
C         31.66894        29.50775        -0.14884
C         32.69572        31.54798         0.47533
C         31.43605        30.91773        -0.07946
C         32.69463        32.99653         0.93302
C         31.46109        33.81308         0.99904
C         32.75718        35.93973         0.72718
C         31.50004        35.16470         0.75113
C         32.73670        37.33019         0.60053
C         31.49963        38.09716        -0.00735
C         32.86883        40.22514        -0.03089
C         31.46866        39.61972         0.26018
C         32.98962        41.72747         0.17363
C         30.64561        42.74176        -1.70204
C         32.76684        44.22307        -1.30997
C         31.82363        43.41459        -1.65008
C         35.30694        27.28337        -0.15058
C         35.10723        28.70085         0.30644
C         34.11834        29.51672        -0.53439
C         35.21148        31.51361         0.50943
C         34.01635        30.92663         0.11943
C         35.22201        32.93316         1.10256
C         33.99823        33.71423         0.58384
C         35.21364        35.84838         1.06753
C         34.00859        35.20372         0.90482
C         35.23197        37.31300         1.25234
C         33.93278        38.07850         1.01511
C         35.30127        40.24330         0.48640
C         34.00522        39.54840         0.70612
C         35.39184        41.52996        -0.34807
C         34.10693        42.33936        -0.33037
C         35.24535        44.57799        -0.42485
C         34.17694        43.69219        -1.04990
C         35.69945        45.86783        -0.96578
C         37.72374        27.27467        -0.46270
C         36.38209        26.74708        -0.42681
C         37.66691        28.72047        -0.23941
C         36.49413        29.39927         0.12671
C         37.74994        31.48476         0.62164
C         36.45827        30.80423         0.37966
C         37.78239        32.94996         1.09969
C         36.49831        33.67941         0.77161
C         37.82366        35.85335         1.31690
C         36.50265        35.10201         1.15377
C         37.83052        37.40197         1.46131
C         36.53541        38.00044         0.92537
C         37.82997        40.17682         0.56146
C         36.56121        39.44178         0.51855
C         37.76888        41.65114         0.63547
C         36.49293        42.38050         0.30474
C         37.81593        44.66427         0.36941
C         36.48321        43.88993         0.15975
C         38.14505        45.76848        -0.75097
C         36.79958        46.42885        -0.93611
C         40.20807        24.49971        -1.00603
C         39.21740        25.23116        -0.82565
C         40.25777        27.27964        -0.32241
C         38.90712        26.59303        -0.59284
C         40.18996        28.76563        -0.55293
C         38.87889        29.51157        -0.69340
C         40.19443        31.68142        -0.30225
C         38.98057        30.83747         0.04818
C         40.28401        32.93682         0.57100
C         38.96290        33.73645         0.44591
C         40.28131        35.85371         0.75348
C         39.10107        35.17691         0.92248
C         40.35001        37.34174         1.09856
C         39.05256        38.07732         0.88341
C         40.28153        40.23733         0.23715
C         39.03882        39.44894         0.61489
C         40.27011        41.62687         0.92249
C         39.02234        42.42905         0.63684
C         40.31303        44.52658         0.62866
C         39.05258        43.78378         0.49069
C         40.30056        45.98596         0.53481
C         39.32072        46.61248        -0.28922
C         40.59872        48.60735        -1.36936
C         39.78729        47.75422        -0.95575
C         42.48126        24.89611         0.08741
C         41.58623        25.11536        -1.12325
C         42.59864        27.41183        -1.11453
C         41.43662        26.64900        -1.04948
C         42.65598        28.76311        -0.60053
C         41.40823        29.47337        -0.48960
C         42.68377        31.57494        -0.30549
C         41.46984        30.87891        -0.26389
C         42.68266        33.01894        -0.08581
C         41.54561        33.71271         0.25819
C         42.76463        35.82810         0.44491
C         41.55648        35.15788         0.47096
C         42.79969        37.30021         0.32376
C         41.52193        38.04931         0.44235
C         42.79201        40.18826         0.56345
C         41.59015        39.52520         0.54288
C         42.79062        41.66765         0.40750
C         41.50941        42.40769         0.54830
C         42.82532        44.56570         1.06968
C         41.50545        43.86958         0.77617
C         42.75763        46.05706         0.83567
C         41.49537        46.68890         0.88865
C         42.94558        48.71406        -0.98645
C         41.83085        49.19886        -1.69454
C         43.41151        25.38668         0.74723
C         45.06825        27.28380         0.55331
C         43.89924        26.69045         1.09901
C         45.09392        28.76368         0.17700
C         43.87529        29.44671        -0.35643
C         45.15162        31.52779        -0.98360
C         43.91347        30.86024        -0.39277
C         45.18410        33.05844        -0.80139
C         43.94862        33.76375        -0.33025
C         45.27761        35.90659        -0.07654
C         44.08589        35.07395         0.41077
C         45.36895        37.28073         0.51032
C         44.06891        38.03076         0.62780
C         45.29644        40.17801         0.62173
C         44.08110        39.50801         0.61255
C         45.31950        41.66625         0.79337
C         44.04362        42.43306         0.67920
C         45.28188        44.67692         0.48276
C         43.98626        43.91429         0.28882
C         45.21000        46.05913         0.41886
C         43.92568        46.75363         0.39828
C         43.64144        47.93535        -0.30617
C         47.45181        27.37658         0.25461
C         46.35275        26.75274         0.41363
C         47.71885        28.73556         0.16404
C         46.41392        29.47746         0.01428
C         47.79262        31.56860        -0.48012
C         46.48990        30.83307        -0.63857
C         47.75786        33.08056        -0.31542
C         46.55220        33.76910        -0.97762
C         47.85366        35.94035        -0.29798
C         46.53902        35.25921        -0.57108
C         47.83122        37.37234         0.05552
C         46.61430        38.04819         0.34769
C         47.78550        40.17941         0.51934
C         46.56130        39.45756         0.51350
C         47.77630        41.62985         0.17550
C         46.59077        42.44288         0.56907
C         47.77891        44.61367        -0.35349
C         46.59531        43.94044         0.41738
C         47.65832        46.07438         0.07084
C         46.53595        46.59291         0.19252
C         50.16985        28.94163         0.72236
C         48.91937        29.47975         0.31945
C         50.22037        31.65020         0.21872
C         48.98665        30.89824         0.12149
C         50.30303        33.00773        -0.18142
C         49.09411        33.74868        -0.74914
C         50.33700        35.94816        -0.24658
C         49.03647        35.23645        -0.35012
C         50.34274        37.43759        -0.00003
C         49.03796        38.10205         0.22293
C         50.25632        40.23031         0.94197
C         49.00531        39.48113         0.52773
C         50.19670        41.75134         0.71891
C         49.06001        42.37960        -0.02861
C         50.31853        44.21670        -0.68523
C         49.10229        43.88944        -0.16978
C         51.22648        29.58971         0.95279
C         52.59816        31.77089         0.73086
C         51.43904        30.94642         0.69880
C         52.66828        32.87674         0.17075
C         51.63924        33.75214        -0.45683
C         52.71951        36.08310        -0.03771
C         51.58573        35.13560         0.20811
C         52.74160        37.31357         0.00892
C         51.62296        38.13146         0.58534
C         52.34936        40.52858        -0.22628
C         51.52674        39.61634         0.32347
C         52.58215        41.58166        -0.96814
C         52.38232        42.90098        -0.85946
C         51.43944        43.77513        -1.21277
O         47.41579        30.96586        -1.76087
O         32.67082        31.91452         1.90399
O         45.68199        29.56766         1.28529
O         48.40004        41.73688        -1.15933
O         42.06933        42.09873        -0.79588
O         34.43904        37.79031         2.36660
O         44.27254        33.73207        -1.74594
O         46.96881        43.32909         1.68402
O         50.52722        36.89878        -1.34215
O         44.59304        42.12972         1.98318
O         50.93034        42.44345         1.41031
O         37.19066        35.30030         2.50638
O         36.77613        42.04448         1.68492
O         36.59057        38.33494        -0.48981
O         45.63057        35.97709        -1.48601
O         34.59612        40.36862         1.75283
O         44.72864        37.43946         1.81595
O         38.67982        30.66035         1.45233
O         42.01842        37.66593        -0.88255
O         35.39702        44.46248         0.99685
O         35.13779        32.84711         2.53880
H         36.06229        32.81987         2.89194
O         40.45276        32.50977         1.94471
H         40.67765        33.29752         2.48344
O         40.16980        40.37444        -1.19029
H         40.93213        40.92086        -1.50548
O         43.71853        26.93327        -1.70486
H         43.52712        26.04337        -2.09118
O         49.28062        33.70083        -2.18205
H         48.42205        33.91602        -2.62922
O         40.64290        37.42751         2.52974
H         39.77794        37.50516         3.00709
O         31.11804        39.82035         1.61516
H         31.06058        40.78481         1.78724
O         34.04473        33.65013        -0.87388
H         34.92716        33.97472        -1.15921
O         38.67574        29.82759        -2.11686
H         38.61796        28.98275        -2.61188
O         37.71950        45.38244         1.60758
H         36.76246        45.41841         1.84789
O         47.43418        44.52852        -1.73397
H         48.18570        44.84912        -2.27473
O         30.32899        33.23438         1.43038
H         30.51152        32.31138         1.70648
O         34.62660        29.61012        -1.84965
H         34.00410        30.12168        -2.40585
O         38.49975        45.08714        -1.94097
H         38.84445        45.73248        -2.59202
O         31.95717        42.37327         0.76855
H         32.14545        43.33326         0.82020
O         51.63697        37.86260         1.99146
H         51.25487        38.64142         2.47526
O         40.30505        41.35726         2.34442
H         40.01982        42.15888         2.83019
O         38.55334        33.88067        -0.93326
H         39.33964        34.09639        -1.48043
O         41.43502        48.01378         1.17315
H         40.50339        48.31240         1.16872
O         41.92342        50.16511        -2.63742
H         42.85230        50.45103        -2.73674
O         34.64556        43.45679        -2.38782
H         34.08705        42.76651        -2.80234
O         47.59329        33.32533         1.09901
H         48.35758        32.93886         1.57815
O         44.40169        34.70558         1.78075
H         44.44538        35.54143         2.30464
O         31.54704        37.93354        -1.43200
H         31.40426        36.98669        -1.64557
O         51.47996        34.95029         1.61382
H         51.62171        35.82440         2.05163
O         42.28277        24.72261        -2.28617
H         42.31894        23.74468        -2.32924
O         51.89267        33.90074        -1.84236
H         51.03830        33.82000        -2.33535
O         34.69724        28.76039         1.65157
H         35.31711        28.24405         2.20513
O         44.96429        31.28811        -2.40018
H         45.76198        31.64179        -2.85659
O         37.92314        32.88789         2.53908
H         38.57081        32.16263         2.71932
O         43.10119        44.34032         2.47516
H         42.48412        44.88273         3.00816
O         35.83347        41.17292        -1.66589
H         35.12260        40.62417        -2.06841
O         40.49212        27.07144         1.14603
H         39.82427        27.60990         1.62564
O         37.89774        37.67080         2.88737
H         37.40417        36.93603         3.33444
O         43.67608        44.03030        -1.11600
H         44.48509        43.86598        -1.64322
O         50.34615        40.11833         2.38942
H         50.80988        40.93383         2.70186
O         33.15546        40.04761        -1.45370
H         32.61805        39.28645        -1.79455
O         40.09394        32.09783        -1.68620
H         39.75644        31.32736        -2.20626
O         46.73130        33.74089        -2.41274
H         45.96165        34.23823        -2.78187
O         43.07029        27.45840         1.79066
H         42.12440        27.12439         1.76440
