         349
 CSIRO Nanostructure Databank - Neutral Graphene Oxide Data Set
C          1.18751         3.39558         0.55058
C          0.03247         4.13969         0.71746
C          1.08772         6.21029        -0.07740
C         -0.01031         5.52961         0.46033
C          1.11941         7.63689        -0.27474
C         -0.07217         8.41194        -0.24975
C          1.10433        10.56537        -0.46600
C         -0.09003         9.79027        -0.36745
C          1.12251        11.96164        -0.49176
C         -0.06442        12.73089        -0.21365
C          0.97616        14.85441        -0.94038
C         -0.12230        14.08454        -0.32264
C          1.00926        16.33332        -0.83518
C         -0.12048        17.05401        -0.52205
C          1.09903        19.13720        -0.09696
C         -0.08929        18.43450        -0.16985
C          1.20938        20.49671         0.38112
C          0.14423        21.13381         1.03198
C          1.31823        23.28462         1.03960
C          0.22065        22.47294         1.40175
C          1.39786        24.63483         1.47079
C          0.53995        25.16896         2.45721
C          1.78154        27.28510         2.51668
C          0.68313        26.46604         2.92106
C          1.95128        28.59951         3.09030
C          3.61740         3.37720         0.04595
C          2.38317         4.01745         0.08139
C          3.62926         6.17796        -0.55903
C          2.28496         5.41102        -0.37369
C          3.57860         7.64699        -0.54480
C          2.37750         8.32181        -0.47303
C          3.61876        10.53533        -0.89813
C          2.38366         9.81215        -0.47548
C          3.53011        11.96317        -1.40434
C          2.43257        12.73181        -0.60181
C          3.54402        14.90017        -1.38788
C          2.26076        14.12657        -1.19071
C          3.58984        16.32046        -1.05419
C          2.29501        17.04052        -0.99774
C          3.63232        19.08668        -0.14762
C          2.32174        18.50208        -0.62205
C          3.57532        20.58543        -0.30719
C          2.41668        21.24611         0.09066
C          3.52806        23.44672        -0.06831
C          2.42233        22.68809         0.28976
C          3.50034        24.92353         0.04977
C          2.31202        25.59532         0.74987
C          3.86677        27.56746         1.23140
C          2.70196        26.79744         1.58129
C          3.98538        28.92222         1.77816
C          2.98146        29.39735         2.69883
C          6.07370         3.41566         0.21711
C          4.85953         4.10646         0.00105
C          5.96138         6.41986         0.36951
C          4.85616         5.51792        -0.15734
C          6.12857         7.69456        -0.45337
C          4.85922         8.30376        -0.91856
C          6.12136        10.52879        -1.30598
C          4.83873         9.75930        -1.27667
C          6.07055        12.00626        -1.13428
C          4.87127        12.67268        -1.25198
C          6.11142        14.88986        -1.18463
C          4.86632        14.13645        -1.40537
C          6.08389        16.29975        -1.11862
C          4.82108        17.01478        -1.00077
C          6.05447        19.17553        -0.83572
C          4.84793        18.42557        -0.74132
C          6.02487        20.59133        -0.87620
C          4.73891        21.29966        -0.81633
C          5.99868        23.61302        -0.73333
C          4.71107        22.85732        -0.72017
C          6.02249        24.96452        -0.53740
C          4.77058        25.69460        -0.17628
C          5.92795        27.96155        -0.13647
C          4.87020        27.04785         0.42548
C          6.19278        29.18224         0.73288
C          5.07972        29.70472         1.48262
C          8.59319         3.47812         0.43643
C          7.29712         4.11345         0.57068
C          8.53928         6.36066         0.40148
C          7.27254         5.68057         0.62508
C          8.50101         7.87050         0.30058
C          7.30327         8.38665        -0.47835
C          8.59151        10.59560        -0.69205
C          7.39262         9.78258        -0.99081
C          8.57023        11.98620        -0.78105
C          7.32155        12.73484        -0.99588
C          8.62956        14.86019        -1.24953
C          7.31957        14.13365        -1.06555
C          8.56618        16.35745        -1.00090
C          7.32485        17.05248        -1.02560
C          8.54533        19.22009        -0.94520
C          7.31387        18.47078        -0.95865
C          8.53037        20.62577        -0.99041
C          7.25555        21.34887        -1.12923
C          8.54633        23.59193        -0.78485
C          7.25938        22.89182        -1.09787
C          8.53874        25.00142        -0.64346
C          7.24463        25.75095        -1.00753
C          8.53018        27.93666        -0.45069
C          7.21446        27.25009        -0.60750
C          8.68264        29.12094         0.51046
C          7.38855        29.83211         0.77854
C         11.02134         3.54360         0.72687
C          9.77168         4.20803         0.57796
C         10.99669         6.37303         0.44578
C          9.74536         5.66781         0.50978
C         11.00384         7.78836         0.15755
C          9.81839         8.46619        -0.10605
C         11.09033        10.61183        -0.30700
C          9.88425         9.82837        -0.74711
C         11.02662        12.05206        -0.38144
C          9.80469        12.71223        -0.60761
C         11.05521        14.91768        -0.70788
C          9.74621        14.21261        -0.44185
C         11.03270        16.32828        -0.79787
C          9.77837        17.05445        -0.86064
C         11.00984        19.17691        -0.64066
C          9.79442        18.49298        -0.83805
C         11.08931        20.64230        -0.79420
C          9.76724        21.41349        -1.05269
C         11.00453        23.54036        -0.55898
C          9.76349        22.86719        -0.75889
C         10.98386        24.95345        -0.45815
C          9.76806        25.67714        -0.49838
C         11.00438        27.87374        -0.09350
C          9.82842        27.17518        -0.77317
C         11.04372        29.36374        -0.12046
C          9.84319        29.99316         0.10925
C         13.44119         3.56668         1.11979
C         12.22734         4.24761         0.84563
C         13.43872         6.41243         0.66305
C         12.21954         5.69076         0.63813
C         13.47583         7.80912         0.38199
C         12.26918         8.49313         0.12185
C         13.51047        10.65907         0.28558
C         12.25355         9.92817         0.01371
C         13.52374        12.13040        -0.03521
C         12.24877        12.80678        -0.33666
C         13.55190        14.87636        -0.77076
C         12.25991        14.18598        -0.59312
C         13.54387        16.38020        -0.75092
C         12.24388        17.06779        -0.65870
C         13.44891        19.13334        -0.03033
C         12.22015        18.44838        -0.47918
C         13.43236        20.62611         0.14894
C         12.24664        21.38910        -0.29998
C         13.45821        23.48061         0.02757
C         12.26505        22.79893        -0.35399
C         13.53224        24.94547        -0.08696
C         12.26910        25.69162        -0.40146
C         13.55375        27.87174        -0.03399
C         12.27055        27.13123        -0.00110
C         13.53168        29.32427        -0.22051
C         12.30688        30.01555        -0.27361
C         15.88499         3.60432         1.51461
C         14.66142         4.25310         1.27200
C         15.99446         6.42471         0.96300
C         14.64179         5.72203         1.14511
C         16.03609         7.74931         0.22663
C         14.74960         8.53658         0.35134
C         16.06787        10.71976         0.37059
C         14.78382         9.89791         0.27892
C         15.99365        11.88205        -0.64390
C         14.79773        12.77155        -0.39227
C         16.03773        14.89520        -0.61797
C         14.83448        14.15360        -0.56662
C         16.01458        16.29314        -0.06361
C         14.77970        17.09047        -0.38186
C         15.98800        19.17696         0.07543
C         14.75594        18.43990        -0.11784
C         15.94947        20.61341         0.15297
C         14.74367        21.30193         0.18971
C         16.04748        23.53836         0.35503
C         14.67500        22.75357         0.37024
C         15.97356        24.98921         0.04201
C         14.71162        25.71526         0.50682
C         16.00241        27.91310         0.16698
C         14.72031        27.18057         0.10173
C         16.01101        29.35403        -0.16899
C         14.76696        30.01339        -0.30812
C         18.38462         3.54273         1.47648
C         17.14150         4.26038         1.34329
C         18.43953         6.19036         0.35345
C         17.18765         5.60373         0.93299
C         18.52320         7.69765         0.44527
C         17.28234         8.50836         0.73550
C         18.50710        10.48752        -0.16954
C         17.33957         9.91048         0.19148
C         18.57669        11.94450        -0.46172
C         17.29724        12.67360        -0.78153
C         18.64404        14.91023        -0.57765
C         17.31027        14.18542        -0.78955
C         18.52915        16.38048        -0.17788
C         17.28636        17.08805        -0.18565
C         18.50959        19.18851         0.42614
C         17.22903        18.47598         0.02702
C         18.50823        20.67199         0.13820
C         17.22415        21.35124        -0.23741
C         18.48999        23.53092        -0.13412
C         17.26754        22.82777         0.05629
C         18.53122        24.95890        -0.19634
C         17.25972        25.70366        -0.21010
C         18.53744        27.87334        -0.29544
C         17.30390        27.16403         0.07180
C         18.48908        29.28754        -0.43546
C         17.23912        29.99151        -0.37030
C         19.60675         4.15621         1.25784
C         20.91796         6.16465         0.57478
C         19.69675         5.49492         0.81022
C         20.93272         7.50113         0.19773
C         19.73503         8.29707         0.21605
C         20.71313        10.54759         0.89832
C         19.85500         9.77685        -0.09981
C         20.66295        11.88749         0.98533
C         19.73077        12.69719         0.15243
C         20.89311        14.92545         0.47213
C         19.56885        14.18566         0.45164
C         20.94203        16.25944         0.22565
C         19.74176        17.03774         0.01139
C         20.98275        19.28371         0.31444
C         19.75923        18.53849        -0.18054
C         20.93437        20.62416         0.41849
C         19.69605        21.36212         0.13150
C         20.92640        23.52659        -0.22862
C         19.72740        22.80330        -0.10969
C         20.93966        24.91590        -0.35333
C         19.74318        25.66776        -0.32731
C         20.90496        27.86294        -0.77872
C         19.73621        27.14046        -0.47398
C         20.87568        29.25884        -0.90204
C         19.69397        29.97040        -0.73842
O         16.76476        27.54089         1.39486
O          7.19373         4.90502         1.85105
O          2.26006        18.12904        -2.01670
O         13.21434        25.38493        -1.45932
O         10.04372        27.17705        -2.16171
O         13.21230        19.73035         1.31239
O         10.66829        21.05753        -2.14264
O          2.89045         5.60639        -1.68333
O         13.64170        15.63659        -2.03006
O          4.18324        14.54642        -2.66775
O          4.44646        22.16756        -1.96534
O         16.35909        25.32184        -1.32038
O          6.98054        10.05005        -2.39029
O          7.23200        22.19761        -2.36248
O          4.75308         8.76682        -2.32594
O         15.29889         6.43936         2.24193
O          3.34652        10.37707         0.53328
O          3.75243        25.57816        -1.24861
O          7.76452        28.12929        -1.66019
O         11.43235        27.32997         1.21115
O         15.37557        23.17810         1.59305
O         19.72745        12.36025        -1.27256
O         17.33671        13.37644        -2.05594
O         13.47443        11.63271         1.41229
O          1.33620        14.29040        -2.28441
O         18.60887        19.01375         1.87236
H         17.93696        19.58813         2.29606
O         19.68163        18.74467        -1.62131
H         20.14923        18.00696        -2.06642
O          8.98320        28.52786         1.82280
H          9.95289        28.38489         1.91156
O          8.98249        14.69405        -2.65097
H          8.26782        15.08110        -3.19893
O         15.89961        16.05986         1.41897
H         15.88711        16.94277         1.85011
O          2.93923        12.97871         0.73313
H          3.08847        12.09231         1.14911
O         17.15183        21.29021        -1.72060
H         18.05145        21.46609        -2.07210
O         14.61933        25.68135         1.94040
H         15.32747        26.26843         2.29207
O          5.28535        28.49887        -1.33138
H          6.01114        28.72215        -1.96137
O         16.13167        11.25751         1.71814
H         15.21378        11.56748         1.94549
O          9.42888        14.44607         0.96920
H         10.11736        14.00511         1.51068
O         19.33479        14.95833        -1.84162
H         19.06202        14.15456        -2.34740
O          5.47020         6.87868         1.66648
H          5.79943         6.22869         2.33063
O         18.39811         5.87927        -1.10160
H         19.07955         6.43756        -1.53558
O         10.09192         9.58636        -2.20255
H          9.20907         9.53818        -2.63292
O         17.18417         8.63064         2.17778
H         16.76655         9.50197         2.38179
O         18.97083        14.25347         1.76490
H         18.85724        15.19862         2.00222
O          3.16894        11.91316        -2.78994
H          3.28273        12.81976        -3.16510
O         15.75424        11.24876        -1.92913
H         15.97890        11.91515        -2.61840
O         20.51712         9.81794        -1.38433
H         20.50356        10.76133        -1.68212
O         16.24652         7.50683        -1.18146
H         15.40996         7.19204        -1.58147
O          7.20630        25.70978        -2.44816
H          7.92098        26.31894        -2.75773
O          8.26576         8.34473         1.68457
H          8.94734         7.93227         2.25739
O          3.67389        18.78675         1.29646
H          4.54225        19.08171         1.64268
O          1.46245        26.14998        -0.30665
H          2.07113        26.38913        -1.04838
H          1.20608         2.33025         0.82106
H         -0.86985         3.65238         1.11259
H         -0.93080         6.07663         0.70681
H         -1.03620         7.89139        -0.16388
H         -1.06376        10.29821        -0.37799
H         -0.95118        12.20182         0.16465
H         -1.03589        14.61014        -0.01246
H         -1.09202        16.54370        -0.46653
H         -1.03633        18.91064         0.11962
H         -0.76681        20.56891         1.27232
H         -0.63060        22.91590         1.93464
H         -0.23930        24.53735         2.90600
H         -0.01280        26.85279         3.67938
H          1.20499        28.95738         3.81388
H          3.66903         2.30651         0.29540
H          3.08724        30.41426         3.10377
H          6.09940         2.32059         0.11952
H          5.19273        30.68461         1.97268
H          8.63732         2.39506         0.24970
H          7.45543        30.77375         1.34874
H         11.02659         2.44819         0.82723
H          9.75635        31.08988         0.12176
H         13.42260         2.47158         1.22495
H         12.32440        31.11381        -0.34670
H         15.88286         2.51982         1.70078
H         14.75886        31.09595        -0.50616
H         18.35282         2.49370         1.80497
H         17.24559        31.07098        -0.58560
H         20.53569         3.59463         1.44005
H         21.86642         5.62424         0.71397
H         21.88867         7.99940        -0.01506
H         21.41992         9.98387         1.52661
H         21.29558        12.42129         1.71056
H         21.81256        14.37487         0.72010
H         21.91217        16.77586         0.26857
H         21.92702        18.75223         0.50192
H         21.82962        21.18744         0.71920
H         21.88646        22.99237        -0.23124
H         21.90801        25.42276        -0.45990
H         21.86038        27.34044        -0.92082
H         21.80540        29.79518        -1.13815
H         19.68418        31.06388        -0.84979
