         236
 CSIRO Nanostructure Databank - Neutral Graphene Oxide Data Set
C        -11.11095         0.57710        -0.08306
C         -9.95833         1.42702        -0.48083
C         -8.68627         0.68354        -0.77112
C         -7.39308         1.42166        -0.63913
C         -6.22944         0.70284        -0.05633
C         -5.20722         1.46238         0.78651
C         -3.85961         0.71417         0.88618
C         -2.57547         1.48532         1.02896
C         -1.34857         0.79099         0.43551
C         -0.04686         1.49364         0.71651
C          1.17653         0.74684         0.70156
C          2.45905         1.42935         0.78389
C          3.68765         0.77197         0.85317
C          4.94502         1.50874         0.83651
C          6.18394         0.77885         1.33299
C          7.57792         1.53594         1.12548
C          8.71537         0.71670         0.52340
C          9.93062         1.46198         0.21145
C         11.16262         0.72489         0.02561
C         -9.87222         2.86322        -0.12002
C         -8.72150         3.58950        -0.24977
C         -7.43144         2.93892        -0.72294
C         -6.21077         3.58525        -0.09740
C         -5.08046         2.91141         0.31864
C         -3.89204         3.63993         0.76039
C         -2.55746         3.01938         1.23239
C         -1.29622         3.69369         0.62366
C         -0.06329         2.91371         0.55541
C          1.18274         3.57352         0.42614
C          2.41331         2.89163         0.86429
C          3.72384         3.64637         0.78544
C          4.96424         2.87346         0.66682
C          6.18705         3.59230         0.15911
C          7.47893         2.88903         0.43691
C          8.67063         3.57756         0.11277
C          9.91195         2.83159         0.07263
C         -8.69699         5.04073        -0.14981
C         -7.53679         5.76928        -0.25776
C         -6.19492         5.07758        -0.32350
C         -5.19404         5.78658         0.56698
C         -4.07088         4.96822         1.01232
C         -2.20425         6.04578         0.77792
C         -1.19207         5.07139         0.42593
C         -0.04717         5.65435        -0.29499
C          1.25331         4.85616        -0.24969
C          2.56647         5.57593        -0.51413
C          3.68714         5.09503         0.38716
C          4.96304         5.85595         0.29606
C          6.24461         5.09287         0.47618
C          7.51256         5.79424         0.06695
C          8.66426         4.94534        -0.22974
C         -7.45832         7.21198        -0.40138
C         -6.26208         7.90134        -0.32470
C         -5.05300         7.25013         0.27398
C         -3.73564         7.85452        -0.23169
C         -2.40823         7.21124         0.09633
C         -1.25358         7.86838        -0.60766
C          0.04086         7.11108        -0.43656
C          1.25647         7.78352        -0.58810
C          2.49501         7.09416        -0.52398
C          3.72696         7.79944        -0.63520
C          4.96154         7.16073        -0.40021
C          6.21413         7.82838        -0.62785
C          7.42486         7.18572        -0.40513
C         -6.14679         9.33048        -0.52974
C         -4.96845        10.01944        -0.41768
C         -3.68493         9.37083        -0.19969
C         -2.48536        10.02493        -0.22505
C         -1.16335         9.29940        -0.02996
C          0.08519         9.97273        -0.55968
C          1.24380         9.25205        -0.73998
C          2.50179         9.89194        -1.05252
C          3.70111         9.20967        -0.99810
C          4.97199         9.85579        -1.25242
C          6.15595         9.20117        -1.10134
C        -11.12693        -0.75007        -0.30396
C         -9.97397        -1.50958        -0.95422
C         -8.67593        -0.79156        -0.63561
C         -7.54973        -1.47301        -0.31701
C         -6.36801        -0.76008         0.22899
C         -5.08340        -1.50683         0.45044
C         -3.80327        -0.74382         0.51206
C         -2.61863        -1.41808         0.55052
C         -1.35245        -0.68521         0.79736
C         -0.04836        -1.43575         0.74186
C          1.18634        -0.65125         0.58082
C          2.45320        -1.32748         0.25974
C          3.74183        -0.67042         0.61853
C          4.91669        -1.38397         0.61249
C          6.20320        -0.72830         0.98814
C          7.50010        -1.45276         0.73097
C          8.71695        -0.65233         0.43171
C          9.91339        -1.36868        -0.02063
C         11.16030        -0.62795        -0.06713
C         -9.94137        -2.96013        -0.52711
C         -8.76196        -3.66868        -0.40412
C         -7.46872        -2.93741        -0.68319
C         -6.21887        -3.64798        -0.21774
C         -5.06003        -2.93502         0.08491
C         -3.74814        -3.56884        -0.00753
C         -2.60811        -2.92150         0.76113
C         -1.28063        -3.62183         0.54525
C         -0.04480        -2.90649         0.52638
C          1.17613        -3.55323         0.32111
C          2.42427        -2.82278         0.06012
C          3.70652        -3.56060         0.06963
C          4.96428        -2.73521        -0.10554
C          6.20433        -3.56257         0.11213
C          7.55238        -2.94595         0.40817
C          8.54834        -3.35440        -0.67759
C          9.86816        -2.67223        -0.44089
C         -8.70938        -5.07258        -0.20912
C         -7.48082        -5.80067        -0.17216
C         -6.21261        -5.07101        -0.23873
C         -4.98984        -5.80172        -0.22902
C         -3.70198        -5.06514        -0.28192
C         -2.46748        -5.75768         0.11292
C         -1.29892        -5.03378         0.42452
C         -0.02863        -5.77128         0.57982
C          1.26793        -5.00915         0.48754
C          2.50151        -5.71826         0.05140
C          3.72608        -4.93008        -0.05669
C          4.97303        -5.65095        -0.27847
C          6.21177        -4.90571        -0.16045
C          7.47981        -5.60493        -0.43402
C          8.60505        -4.87016        -0.71196
C         -7.47613        -7.17957         0.02556
C         -6.21721        -7.92500         0.37796
C         -4.99216        -7.19445        -0.09944
C         -3.77429        -7.94587        -0.34470
C         -2.44805        -7.18507        -0.16344
C         -1.24973        -8.01315         0.12275
C          0.01036        -7.25039         0.32570
C          1.23622        -7.82506        -0.29475
C          2.50092        -7.05387        -0.23939
C          3.69799        -7.70916        -0.89781
C          4.98405        -7.00487        -0.54263
C          6.23738        -7.72551        -0.62487
C          7.43717        -7.04328        -0.56593
C         -6.18696        -9.38747        -0.00540
C         -5.03735       -10.07238        -0.20252
C         -3.73286        -9.42481        -0.23451
C         -2.53997       -10.10485        -0.31315
C         -1.24307        -9.43914        -0.32027
C         -0.03763       -10.06843        -0.48384
C          1.22737        -9.29165        -0.63954
C          2.55982        -9.94022        -0.65399
C          3.71854        -9.21641        -0.69917
C          5.01479        -9.86792        -0.71160
C          6.18583        -9.17361        -0.71927
O          8.06765        -3.58864         1.60354
H          7.60391        -3.18400         2.37076
O          3.04646         3.44718         2.07034
O         -2.99211        -7.47363        -1.49172
O          6.01893         3.60206        -1.31197
H          6.01048         2.67450        -1.63081
O         -1.55397         0.87100        -1.01003
H         -0.70834         0.67598        -1.46614
O          0.40676         4.87775        -1.45839
O          6.94912        -1.36405         2.10205
O          2.97687         5.18089        -1.85499
H          2.16465         5.20321        -2.41346
O          0.72911        -5.44565         1.79186
O         -3.16258         0.84452         2.18145
O         -6.00358        -1.17757         1.56643
O          8.05611        -2.88736        -1.96394
H          8.56792        -3.33173        -2.67082
O        -10.15653        -1.49626        -2.40075
H        -10.10383        -0.54279        -2.66271
O         -3.12852         5.65852         1.76034
O         -2.43678         3.23901         2.64678
H         -3.06487         2.61856         3.08506
O         -7.33595        -2.94160        -2.14417
H         -8.16400        -2.55706        -2.51562
O         -7.35841         3.25196        -2.15273
H         -6.80707         2.54584        -2.56197
O         -5.76123         1.67079         2.05392
O         -3.86043         7.52257        -1.63219
O         -0.95081         9.13170         1.40546
H         -0.98016        10.01648         1.82538
O          8.07854         1.88495         2.44594
H          7.28646         2.03155         3.01857
O         -6.16803        -7.92627         1.85931
H         -6.25751        -6.99610         2.15912
O         -3.47434        -4.07503        -1.34509
O         -1.40627         7.92339        -2.03030
H         -2.38886         7.74552        -2.21816
O         -2.94643        -3.11681         2.16627
H         -2.34143        -2.54706         2.69353
O         -6.28735         0.92949        -1.50078
O          5.90752         0.82112         2.76097
H          6.35376         0.03751         3.16151
O          3.53505        -7.49359        -2.33660
H          2.62243        -7.80463        -2.56041
O          5.02635        -2.34861        -1.52501
H          4.10169        -2.11128        -1.79005
O         -0.71901        -1.06116         2.04448
O         -5.66035         5.29249        -1.66231
H         -6.23960         4.77306        -2.27213
O          4.08077         5.94568         1.48831
O          1.01752        -8.25910        -1.70178
O         -5.46767         6.80887         1.60482
O          7.08615         5.55326         1.53015
O         -9.52935         1.14399        -1.88366
O          2.37627        -1.89769        -1.12709
O         -0.63005        -7.93960         1.45287
H         12.09114        -1.18251        -0.25427
H         12.09863         1.29338        -0.07483
H         10.84322         3.37165        -0.15213
H          9.58620         5.41173        -0.60878
H          8.36281         7.70859        -0.64679
H          7.10446         9.72203        -1.29778
H          4.96302        10.90858        -1.57148
H          2.49951        10.96815        -1.28409
H          0.11189        11.07061        -0.65870
H         -2.46584        11.12361        -0.32794
H         -4.97458        11.11314        -0.55036
H         -7.06578         9.88769        -0.77207
H         -8.38203         7.76113        -0.64677
H         -9.66384         5.56139        -0.05966
H        -10.80159         3.36580         0.19067
H        -11.97694         1.06947         0.38628
H        -12.02017        -1.33145        -0.02651
H        -10.90456        -3.48338        -0.41481
H         -9.65216        -5.62914        -0.08983
H         -8.43574        -7.70606         0.14515
H         -7.14547        -9.92818        -0.00161
H         -5.07130       -11.15970        -0.37234
H         -2.55233       -11.20541        -0.34846
H          0.00042       -11.15205        -0.67448
H          2.60268       -11.03786        -0.57432
H          5.03336       -10.96851        -0.72524
H          7.14102        -9.71908        -0.74849
H          8.38510        -7.59574        -0.65407
H          9.51856        -5.36801        -1.07406
H         10.79570        -3.16132        -0.77971
