         224
 CSIRO Nanostructure Databank - Neutral Graphene Oxide Data Set
C        -11.12464         0.64263        -0.71903
C         -9.92513         1.44227        -0.51491
C         -8.75629         0.67726        -0.00958
C         -7.46266         1.38955         0.24372
C         -6.19563         0.65579         0.04628
C         -4.98239         1.52914        -0.26712
C         -3.66950         0.73758        -0.24058
C         -2.43478         1.28559         0.37974
C         -1.17948         0.45248         0.63871
C          0.02254         1.30195         0.30227
C          1.18253         0.60871        -0.10277
C          2.43882         1.38781        -0.10543
C          3.72566         0.74173        -0.40710
C          4.91451         1.50494        -0.82343
C          6.08774         0.66202        -1.22631
C          7.35363         1.48553        -1.58811
C          8.66765         0.71968        -1.25840
C          9.99187         1.49735        -1.15762
C         10.97601         0.85400        -0.18761
C         -9.84175         2.78730        -0.76028
C         -8.57296         3.55571        -0.62979
C         -7.37265         2.84644        -0.08911
C         -6.30408         3.56145         0.72136
C         -4.93649         2.84892         0.54512
C         -3.76147         3.37770         1.00014
C         -2.45833         2.62049         1.09338
C         -1.28553         3.43088         0.57136
C          0.00292         2.72457         0.40870
C          1.13310         3.52217         0.13644
C          2.34535         2.84748        -0.34579
C          3.61543         3.60299        -0.59442
C          4.90313         2.86500        -0.74358
C          6.15466         3.59628        -0.78294
C          7.33997         2.90418        -0.99566
C          8.59503         3.60962        -0.81601
C          9.80833         2.95599        -0.84294
C         -8.50523         5.03632        -0.69856
C         -7.35584         5.71200        -0.34913
C         -6.31011         5.05613         0.44379
C         -5.46725         5.84884         1.15343
C         -3.59161         4.73736         1.54150
C         -2.51056         5.54624         1.34934
C         -1.28710         4.93491         0.75200
C          0.02447         5.59049         0.82164
C          1.16912         4.94088         0.33107
C          2.42447         5.67296         0.14295
C          3.61705         5.03952        -0.25470
C          4.88917         5.70051        -0.32053
C          6.10363         5.01811        -0.50660
C          7.36232         5.73590        -0.44021
C          8.54752         5.03141        -0.55183
C         -7.14546         7.12204        -0.63884
C         -6.07456         7.84689        -0.15998
C         -5.17170         7.25479         0.85908
C         -3.77342         7.83128         1.11582
C         -2.58394         7.03252         1.77641
C         -1.20075         7.72671         1.60429
C          0.10145         6.96158         1.32650
C          1.34487         7.71153         1.04421
C          2.41938         7.09454         0.45164
C          3.61745         7.89336         0.09432
C          4.89463         7.17579        -0.27372
C          6.18451         7.88031        -0.11768
C          7.35298         7.16596        -0.20337
C         -5.75148         9.17768        -0.61137
C         -4.54386         9.75347        -0.33591
C         -3.48047         9.11046         0.40722
C         -2.27123         9.74498         0.54754
C         -1.11191         9.15505         1.17991
C          0.08847         9.81309         1.14008
C          1.38683         9.14712         1.55104
C          2.62349         9.90047         1.12900
C          3.70589         9.29522         0.57282
C          4.98311         9.97125         0.40869
C          6.13788         9.30906         0.11493
C        -11.13016        -0.71752        -0.60706
C         -9.92315        -1.50028        -0.36401
C         -8.71436        -0.78123        -0.18834
C         -7.48300        -1.45922        -0.10415
C         -6.23181        -0.69991        -0.15128
C         -5.01269        -1.45814        -0.50237
C         -3.69540        -0.73322        -0.54031
C         -2.52115        -1.57348        -0.03789
C         -1.21383        -0.86627        -0.09703
C         -0.06708        -1.48385        -0.56061
C          1.16586        -0.73890        -0.48966
C          2.38216        -1.34345        -1.04769
C          3.67020        -0.61546        -0.98590
C          5.02850        -1.23682        -1.19462
C          6.18591        -0.64083        -0.44031
C          7.34081        -1.35391        -0.48479
C          8.63478        -0.67010        -0.70303
C          9.79305        -1.29001        -0.01580
C         10.92283        -0.42289         0.25680
C         -9.90213        -2.90504        -0.30384
C         -8.68867        -3.61777        -0.09928
C         -7.47959        -2.87459        -0.05413
C         -6.19626        -3.57840         0.12333
C         -4.98498        -2.89822        -0.31015
C         -3.77347        -3.63362        -0.65974
C         -2.49753        -2.93852        -0.66249
C         -1.30988        -3.62808        -0.88367
C         -0.05766        -2.86670        -1.05565
C          1.12073        -3.39420        -1.60535
C          2.39243        -2.74549        -1.51659
C          3.66159        -3.20637        -1.92509
C          4.84147        -2.78361        -1.04085
C          6.13486        -3.64848        -0.91976
C          7.38230        -2.83750        -0.59758
C          8.56779        -3.45180         0.04475
C          9.71744        -2.61359         0.34052
C         -8.65954        -5.06411         0.01576
C         -7.48906        -5.80144         0.15503
C         -6.19778        -5.08801         0.24791
C         -4.95765        -5.84844         0.02360
C         -3.74307        -5.19075        -0.44715
C         -2.43408        -5.79861        -0.19283
C         -1.29855        -5.04829        -0.57088
C          0.00086        -5.52257        -0.13196
C          1.20101        -5.49957        -0.81731
C          2.40487        -6.07838        -0.31924
C          3.70527        -5.82894        -1.00627
C          4.94262        -5.84257        -0.15922
C          6.11243        -5.05245        -0.33883
C          7.32348        -5.57661         0.21647
C          8.53047        -4.78903         0.33953
C         -7.41784        -7.23293         0.25331
C         -6.20555        -7.91499         0.38437
C         -4.93871        -7.21363         0.25131
C         -3.66816        -7.90057         0.34194
C         -2.43923        -7.17455         0.29941
C         -1.24733        -7.90842         0.63159
C         -0.01142        -7.26528         0.87557
C          1.23829        -7.90471         0.87514
C          2.42038        -7.15463         0.57693
C          3.71248        -7.70228         1.10859
C          4.96991        -7.04891         0.57383
C          6.20101        -7.65048         0.91457
C          7.36833        -6.90062         0.71735
C         -6.13567        -9.34534         0.55570
C         -4.93853        -9.99932         0.63798
C         -3.66510        -9.31321         0.56969
C         -2.45757       -10.02023         0.70831
C         -1.21737        -9.33894         0.75291
C          0.04038       -10.01247         0.95585
C          1.26696        -9.33906         0.97985
C          2.57963        -9.95837         1.09296
C          3.74287        -9.22085         1.10754
C          5.05213        -9.79930         1.33024
C          6.19257        -9.04661         1.32979
O          4.01432         7.75939        -1.30934
O          3.73087        -7.33427         2.53874
H          2.90069        -7.67442         2.93619
O         -0.37071         7.26849         2.70809
O         -4.30830        -1.06276        -1.79123
O         -1.08914         0.10726         2.06268
H         -1.16016         0.95164         2.57424
O         -4.71270         5.27957         2.19981
O         -4.88682         8.06791         2.04659
O         -1.58863         4.29939        -0.55581
O          2.90142        -0.52104        -2.23327
O          4.28583        -2.85024         0.30780
H          4.94920        -2.51296         0.94691
O         -6.67273         3.35035         2.10489
H         -6.09505         3.92942         2.65312
O          1.20432        -4.74977        -2.01530
O          5.57019        -0.32268        -2.33969
O          1.46829         9.12757         3.00676
H          0.74623         8.52625         3.32203
O         10.64867         1.42996        -2.45267
H         10.38965         0.56430        -2.84610
O          3.34672         0.96052         0.99967
O         -3.94124        -4.58761        -1.76479
O          2.70462         3.25874        -1.71004
O          7.33407         1.68190        -3.01149
H          7.30175         0.79005        -3.42246
O         -7.45031         3.05149        -1.51490
O         -2.22090         2.43756         2.52281
H         -3.06963         2.21394         2.96014
O         -2.82542         7.06063         3.18974
H         -3.79505         7.18058         3.32274
O         -5.15525         1.95416        -1.63589
H         -4.25819         2.12719        -2.00287
O         -2.86405        -1.80448         1.38222
H         -2.12442        -1.44844         1.93415
O         -6.07012        -4.23912         1.46026
O          3.82449        -5.96018        -2.21719
O          0.01033        -5.90676         1.22875
O          3.85185        -3.83569        -3.07261
H          4.76759        -4.16628        -3.17470
O          8.83936        -0.42331        -2.15932
O         -2.65845         1.43177        -1.05577
O          7.10254        -3.37699        -1.95947
O         -8.31307         1.05031         1.36643
H         11.74929        -0.82790         0.86162
H         11.86835         1.45581         0.04521
H         10.72864         3.54193        -0.69623
H          9.50428         5.56732        -0.45922
H          8.31979         7.68166        -0.09880
H          7.08738         9.86418         0.08126
H          5.01622        11.05165         0.61505
H          2.70362        10.94393         1.47228
H          0.11418        10.84495         0.75587
H         -2.14009        10.73627         0.08632
H         -4.32517        10.75306        -0.74098
H         -6.47872         9.70933        -1.24219
H         -7.83428         7.60536        -1.34886
H         -9.32800         5.57842        -1.18955
H        -10.73675         3.33144        -1.10163
H        -12.05765         1.16813        -0.97373
H        -12.07230        -1.26515        -0.76067
H        -10.84505        -3.46497        -0.39543
H         -9.62267        -5.59658        -0.02013
H         -8.35647        -7.80834         0.25572
H         -7.07576        -9.91225         0.62773
H         -4.92474       -11.09057         0.77905
H         -2.48262       -11.11369         0.82812
H          0.02741       -11.10903         1.04821
H          2.63508       -11.05489         1.18406
H          5.11539       -10.87973         1.53253
H          7.16023        -9.52465         1.54348
H          8.34195        -7.31903         1.01368
H          9.41015        -5.27222         0.79113
H         10.57097        -3.08673         0.85052
