         720
 CSIRO Nanostructure Databank - Neutral Graphene Oxide Data Set
C         22.91238        27.34512        -0.34131
C         22.96203        28.71113        -0.52362
C         23.07195        31.67989        -0.77020
C         23.16453        33.03367        -0.94590
C         23.33190        35.87749        -1.59968
C         23.33473        37.26359        -1.72503
C         23.28429        40.20134        -1.38206
C         23.19005        41.52816        -1.61059
C         23.10684        44.54941        -2.53947
C         23.21001        45.90142        -2.62530
C         25.21129        24.48250         0.51066
C         24.02633        25.21868         0.30301
C         25.39222        27.14726        -0.36366
C         24.07588        26.54275        -0.12879
C         25.44223        28.69197        -0.48802
C         24.17890        29.46462        -0.47966
C         25.49787        31.59558        -0.30029
C         24.22709        30.86608        -0.53670
C         25.59250        33.01926        -0.70793
C         24.43620        33.72479        -0.99707
C         25.75610        35.86216        -1.19639
C         24.49597        35.15365        -1.29576
C         25.73528        37.29789        -1.36170
C         24.53388        37.99509        -1.57959
C         25.68774        40.16678        -1.83931
C         24.53041        39.46778        -1.61844
C         25.69631        41.67744        -1.72887
C         24.35573        42.24702        -2.19455
C         25.58079        44.35158        -2.93413
C         24.29027        43.67671        -2.66739
C         25.57457        45.71931        -3.20664
C         24.47560        46.56993        -2.88857
C         25.79236        48.71620        -2.54094
C         24.61360        47.96695        -2.76366
C         27.86213        23.08180        -0.27268
C         27.68875        24.22339         0.71391
C         26.47331        25.07037         0.42672
C         27.83686        27.12697         0.16384
C         26.60347        26.44456         0.09139
C         27.87310        28.54956        -0.04605
C         26.71915        29.31999        -0.17491
C         28.08188        31.45059        -0.19540
C         26.76529        30.78920        -0.05062
C         28.09205        32.94299        -0.23103
C         26.94721        33.63722        -0.98001
C         28.25993        35.87673        -0.64067
C         26.95191        35.15979        -0.95872
C         28.30472        37.38037        -1.12071
C         26.99116        38.08236        -1.33240
C         28.26291        40.25881        -1.94973
C         26.98551        39.45832        -1.95269
C         28.23024        41.74837        -2.04872
C         26.93424        42.33323        -2.32181
C         28.59789        44.74060        -2.38705
C         26.78435        43.57999        -2.92131
C         28.42012        46.13711        -2.13473
C         27.42648        46.90817        -2.76216
C         28.07849        48.94875        -1.43518
C         27.09843        48.22508        -2.37036
C         28.29776        50.42269        -1.64416
C         30.09457        22.82051         0.65675
C         29.03115        22.40802        -0.25508
C         30.14361        24.21052         1.04953
C         28.99625        24.98008         0.81369
C         30.24875        27.07618         0.75604
C         29.03823        26.41694         0.61477
C         30.42433        28.44987         0.24564
C         29.18439        29.22759        -0.14508
C         30.55701        31.35023        -0.28614
C         29.22600        30.71261        -0.16858
C         30.66525        32.82016        -0.30728
C         29.42354        33.63435        -0.26017
C         30.65367        35.30827        -1.46037
C         29.46958        34.97673        -0.89289
C         30.75526        37.53449        -1.75562
C         29.52594        38.14078        -1.51958
C         30.71058        40.27990        -1.47412
C         29.52448        39.59546        -1.51677
C         30.76130        41.78740        -1.57374
C         29.40894        42.46847        -1.78784
C         30.42665        44.55624        -0.75225
C         29.44315        43.90262        -1.66372
C         30.47498        46.05617        -0.71311
C         29.41131        46.84591        -1.36111
C         30.69479        48.96320        -1.21133
C         29.38434        48.20956        -1.25526
C         30.57815        50.37950        -0.69241
C         29.40326        51.06326        -1.14248
C         32.85698        20.20039         0.57833
C         31.57627        20.74021         0.39050
C         32.87849        22.89518         1.81728
C         31.09282        21.89606         1.03486
C         32.72812        24.26767         1.68192
C         31.34895        24.94071         1.70774
C         32.58601        27.18635         1.76430
C         31.52706        26.32372         1.03064
C         32.71461        28.58817         1.20692
C         31.67584        29.18699         0.55409
C         33.07347        31.31704         0.34633
C         31.81679        30.56411         0.01992
C         33.16201        32.77265        -0.04489
C         31.89167        33.40276        -0.48829
C         33.01734        35.74650        -0.47005
C         31.94908        34.77797        -1.01008
C         32.93100        37.27533        -0.55895
C         31.97036        38.06344        -1.23383
C         32.69290        40.15934         0.07847
C         32.04485        39.59093        -1.23803
C         32.80409        41.65683        -0.00765
C         31.50181        42.35892        -0.31428
C         32.77999        44.51663         0.04838
C         31.66086        43.84405        -0.39547
C         32.78717        45.97251         0.11306
C         31.73144        46.71169        -0.35058
C         32.98735        48.88668         0.02985
C         31.85931        48.16385        -0.62128
C         32.92689        50.35826         0.17406
C         31.73261        51.05350        -0.17518
C         32.91201        53.15445         0.22272
C         31.74301        52.47866        -0.01396
C         35.40421        19.15344        -0.36700
C         35.30860        20.07634         0.70386
C         34.05495        20.78457         1.08285
C         35.26400        22.95440         1.66108
C         34.08521        22.14339         1.59146
C         35.18039        24.37754         1.59282
C         33.92448        25.05664         1.60911
C         35.11923        27.19589         1.73743
C         33.91862        26.47132         1.67650
C         35.10398        28.64870         1.80842
C         33.94820        29.31488         1.49874
C         35.19660        31.53798         1.60687
C         33.85995        30.82307         1.55268
C         35.07205        33.05535         1.71492
C         34.07651        33.68780         0.68269
C         34.57637        35.98492         1.43577
C         33.89667        35.07295         0.57597
C         34.57877        37.35223         1.22198
C         33.89328        38.01241         0.20443
C         35.19949        40.12925         0.37687
C         34.02227        39.47151         0.20070
C         35.21636        41.59741         0.73288
C         33.96674        42.32469         0.25875
C         35.23972        44.43402         0.44631
C         34.02643        43.78148         0.29086
C         35.25289        45.91937         0.46954
C         33.94349        46.58731         0.87253
C         35.25208        48.87477         1.14931
C         33.98021        48.13032         0.86302
C         35.34385        50.33541         0.82615
C         34.13181        51.04368         0.50480
C         35.41080        53.15082         0.38705
C         34.15199        52.47012         0.40190
C         35.47707        54.55666         0.00987
C         37.84778        18.97743        -0.15537
C         36.62279        18.56382        -0.71329
C         37.81803        20.01603         0.80111
C         36.55384        20.35238         1.31430
C         37.74969        22.96010         1.49671
C         36.55575        22.38364         1.88814
C         37.62713        24.39366         1.16398
C         36.38602        25.12559         1.48624
C         37.60575        27.30476         1.61473
C         36.37232        26.52503         1.61396
C         37.63616        28.70370         1.87213
C         36.34502        29.40090         2.24199
C         37.62835        31.60854         2.16869
C         36.34516        30.86727         1.84599
C         37.70193        32.93061         1.40316
C         36.44367        33.72392         1.64505
C         37.67238        35.88283         1.37411
C         36.54548        35.04425         1.90990
C         37.67333        37.36189         1.13119
C         36.61948        38.21713         1.23586
C         37.76515        40.18359         0.37337
C         36.50704        39.37300         0.26658
C         37.74535        41.60305         0.34678
C         36.51309        42.31946         0.39459
C         37.76906        44.42737         0.49436
C         36.52154        43.72893         0.43719
C         37.80721        45.84487         1.04135
C         36.52952        46.63130         0.73358
C         37.79191        48.77292         1.04998
C         36.51066        48.05683         1.22022
C         37.80750        50.25345         1.13716
C         36.56525        51.02695         0.94671
C         37.87450        53.13494         0.38383
C         36.59222        52.43870         0.66106
C         37.92272        54.51533        -0.29233
C         36.62081        55.20069        -0.32653
C         40.31087        16.89692        -2.14452
C         39.21123        17.19069        -1.43835
C         40.25971        19.35227        -0.60982
C         39.17664        18.26344        -0.37678
C         40.32581        20.20103         0.63891
C         39.08001        20.67495         1.39910
C         40.18168        23.04677         1.44042
C         39.03155        22.26344         1.45698
C         40.18405        24.55982         1.44158
C         38.87397        25.20023         1.06859
C         40.03935        27.33097         1.30651
C         38.80996        26.63376         1.37164
C         40.08389        28.73084         1.51159
C         38.86211        29.41789         1.83521
C         40.13174        31.55263         1.82916
C         38.91152        30.85052         1.92406
C         40.21514        32.95988         1.70861
C         38.93730        33.75321         1.87500
C         40.24720        35.78985         1.03485
C         38.94909        35.10684         1.19121
C         40.21090        37.20104         0.55627
C         38.89056        37.95668         0.47254
C         40.20630        40.12985         0.32825
C         38.95663        39.45239         0.41462
C         40.22010        41.55867         0.26252
C         38.99831        42.29308         0.29510
C         40.24924        44.43061         0.33554
C         38.99856        43.73034         0.37162
C         40.24171        45.91830         0.09961
C         39.01899        46.62502         0.59474
C         40.29902        48.71447         0.89057
C         38.98278        48.10812         0.39340
C         40.34330        50.04448         1.63560
C         38.98855        50.72375         1.62938
C         40.33591        53.24983         0.78228
C         39.08995        52.81825         1.11380
C         40.40539        54.55317         0.13037
C         39.21674        55.24418        -0.24394
C         40.51514        57.27802        -0.61004
C         39.30218        56.60150        -0.61480
C         42.84313        17.01647        -2.34863
C         41.55080        17.76983        -2.15048
C         42.75879        18.95862        -0.31157
C         41.58614        18.68760        -0.95042
C         42.82320        20.12842         0.55156
C         41.55173        20.48500         1.14137
C         42.67296        23.10748         1.07511
C         41.53640        22.54999         1.60703
C         42.70827        24.62212         0.91629
C         41.28809        25.17492         0.52586
C         42.12064        27.53433         0.21367
C         41.16002        26.68488         0.71464
C         42.41812        28.81374         0.76408
C         41.34100        29.41201         1.42009
C         42.71781        31.49997         1.77629
C         41.40349        30.76570         2.07831
C         42.69487        32.96838         1.50554
C         41.44588        33.65128         1.49722
C         42.69405        35.78411         0.76969
C         41.41409        35.08363         1.17873
C         42.64848        37.25535         1.14000
C         41.44216        38.00495         0.66158
C         42.76060        40.07156         0.27924
C         41.43438        39.36525         0.45347
C         42.67771        41.58511         0.44185
C         41.48054        42.28301         0.29852
C         42.71035        44.48348         0.29872
C         41.47594        43.74566         0.30544
C         42.75580        45.90196         0.42825
C         41.53964        46.62708         0.45415
C         42.76294        48.81732         0.45334
C         41.48646        48.03234         0.68920
C         42.74463        50.28780         0.87609
C         41.51981        50.93775         1.17151
C         42.77320        53.06481         0.67624
C         41.53442        52.48597         1.37763
C         42.80030        54.58645         0.75680
C         41.62372        55.26882         0.18220
C         42.97781        57.30747        -0.18787
C         41.69553        56.62483        -0.19102
C         43.95497        17.21779        -1.63133
C         45.26892        18.89424        -0.18510
C         43.98847        18.08931        -0.39966
C         45.24421        20.23967         0.27868
C         43.98445        20.87722         0.68614
C         45.22080        23.12502         0.83075
C         43.96447        22.33405         1.09304
C         45.18124        24.55277         0.40378
C         43.93035        25.14758         0.15307
C         45.09111        27.30162        -0.29836
C         43.97480        26.46685        -0.32986
C         44.93164        28.82653        -0.17251
C         43.90231        29.22316         0.98792
C         45.21613        31.48539         1.10744
C         43.94436        30.72127         1.35443
C         45.19648        32.95176         1.18991
C         43.93532        33.66601         1.31234
C         45.16062        35.81411         1.36977
C         43.95210        35.07977         1.21101
C         45.19794        37.21936         1.48529
C         43.90177        37.99932         1.46703
C         44.74624        40.32352         1.67975
C         43.82470        39.47121         1.17079
C         44.99689        41.66485         1.19473
C         43.90664        42.30531         0.62087
C         45.28244        44.46035         0.59170
C         43.97900        43.73932         0.29483
C         45.24124        45.92693         0.80969
C         44.02011        46.58486         0.71927
C         45.29064        48.78052         0.98376
C         43.97920        48.04703         0.93850
C         45.25534        50.20620         0.44595
C         43.99886        50.94121         0.87645
C         45.31681        53.09651         0.48474
C         44.08632        52.41570         1.16531
C         45.36310        54.55414         0.86895
C         44.10153        55.33584         0.78430
C         44.11725        56.70145         0.22314
C         47.71171        18.90274        -0.05666
C         46.50554        18.25727        -0.34597
C         47.71967        20.25494         0.31426
C         46.47958        20.91963         0.43890
C         47.72485        23.19386         0.38986
C         46.46149        22.40231         0.42241
C         47.68558        24.68115         0.47280
C         46.36789        25.25843         0.07407
C         47.50380        27.36728        -0.78428
C         46.32270        26.62990        -0.24473
C         47.49605        28.79327        -0.32957
C         46.33884        29.42943         0.01798
C         47.58215        31.68634         0.16912
C         46.43982        30.82616         0.51670
C         47.63024        32.99459         0.62973
C         46.41299        33.62266         1.11676
C         47.75967        35.76982         1.41441
C         46.42403        35.04711         1.49874
C         47.70590        37.21390         1.24178
C         46.48850        37.86229         1.50921
C         47.60081        40.08811         1.40869
C         46.59517        39.26122         1.81231
C         47.48138        41.52846         1.60246
C         46.29359        42.29384         1.36945
C         47.61852        44.38847         1.47207
C         46.42098        43.69682         1.15755
C         47.80492        45.79604         0.85942
C         46.51471        46.62536         0.97925
C         47.83026        48.76645         1.11823
C         46.54378        47.99847         0.94227
C         47.75980        50.20091         0.62075
C         46.57276        50.93556         0.66700
C         47.78972        53.08546         0.99796
C         46.59505        52.35671         0.74156
C         47.74467        54.44199         1.34008
C         46.51806        55.14761         1.31745
C         50.29953        20.34749         0.61243
C         48.97907        20.97778         0.69066
C         50.27003        23.27402         0.69725
C         49.00019        22.51529         0.72165
C         50.37472        24.82159         0.63737
C         48.96057        25.46101         0.34162
C         50.06720        27.43176        -0.81264
C         48.83697        26.56126        -0.73009
C         49.99685        28.79648        -0.86083
C         48.72521        29.55561        -0.68439
C         50.01344        31.80660        -0.48637
C         48.73508        31.06290        -0.50694
C         50.08916        33.08645         0.01922
C         48.89416        33.74889         0.54929
C         50.29055        35.76648         1.19591
C         48.97191        35.05716         0.96262
C         50.25892        37.28936         0.99836
C         48.92968        37.95384         0.89379
C         50.10073        40.21122         1.29817
C         48.86632        39.49389         0.91337
C         49.91973        41.41377         1.94068
C         48.67761        42.19108         1.90563
C         50.68927        44.71271         1.65855
C         48.66913        43.60764         1.98412
C         50.45116        45.97731         1.05789
C         49.12100        46.61378         1.04991
C         50.27427        48.68421         0.29420
C         49.06791        47.96176         0.76453
C         50.27112        50.19972         0.14265
C         48.99093        50.93920         0.33123
C         50.38962        52.99180         0.92753
C         49.05979        52.43048         0.63325
C         51.39679        21.07760         0.95103
C         53.34570        23.81287         0.74700
C         51.35335        22.51640         1.07075
C         52.97475        24.90521        -0.05135
C         51.53970        25.34207        -0.27519
C         52.50339        27.43762        -1.64901
C         51.34754        26.67338        -0.99323
C         52.45515        28.93365        -1.40519
C         51.17915        29.58642        -1.27778
C         52.47006        31.83813        -1.07280
C         51.17725        31.16048        -1.11588
C         52.53004        33.19861        -0.63934
C         51.34459        33.84676        -0.04909
C         52.77189        35.80972         0.58322
C         51.42912        35.12251         0.45161
C         52.71860        37.33777         0.73884
C         51.42961        38.01743         0.95873
C         52.73083        40.28113         0.96111
C         51.40769        39.53825         0.95110
C         52.90479        41.74165         1.27488
C         51.94244        42.56020         1.79804
C         52.93057        44.57069         0.73778
C         51.86296        43.97230         1.47536
C         52.86795        45.95704         0.46326
C         51.62907        46.65622         0.63078
C         52.75751        48.79118         0.09574
C         51.59481        48.05529         0.35053
C         52.74171        50.22289        -0.00266
C         51.54181        50.92638         0.22639
C         51.53215        52.29917         0.66167
C         55.67185        23.91546         0.09933
C         54.67848        23.34852         0.85575
C         55.38210        25.05060        -0.69468
C         54.05447        25.59077        -0.72870
C         54.98476        27.60046        -1.80781
C         53.87851        26.86476        -1.37084
C         54.86741        29.01835        -2.22897
C         53.53819        29.74870        -1.94978
C         54.82358        31.89554        -1.75996
C         53.60689        31.18936        -1.60611
C         54.88178        33.29505        -1.38535
C         53.71227        33.91713        -0.83039
C         55.07795        35.98866        -0.41162
C         53.70038        35.40396        -0.56916
C         55.12101        37.45319        -0.06733
C         53.91181        38.01255         0.67905
C         55.33350        40.17728         0.89010
C         54.00086        39.46939         1.00433
C         55.42551        41.67343         0.70840
C         54.16372        42.44489         0.92069
C         55.26810        44.48709        -0.00073
C         54.11242        43.84319         0.47470
C         55.24360        45.90637        -0.16023
C         54.06586        46.62018         0.06635
C         55.30364        48.85332        -0.35242
C         54.06429        48.09895         0.09186
C         55.11248        50.27658        -0.68670
C         53.95264        50.91755        -0.39690
C         57.72359        25.04684        -1.59847
C         56.46774        25.69656        -1.38663
C         57.42482        27.76088        -2.32759
C         56.29525        27.02546        -1.82957
C         57.34440        29.16793        -2.54076
C         56.08440        29.83995        -2.30586
C         57.15086        32.08509        -2.69349
C         56.00534        31.22385        -2.22274
C         57.38607        33.27770        -1.76906
C         56.09345        34.01756        -1.47291
C         57.44410        36.13243        -1.14672
C         56.16773        35.36762        -0.98770
C         57.73985        37.15403        -0.07016
C         56.50356        37.93115         0.38773
C         57.67763        40.07619        -0.17745
C         56.59590        39.40114         0.60949
C         57.55988        41.48832        -0.65554
C         56.47492        42.32696        -0.10093
C         57.58345        44.34536        -0.96951
C         56.44960        43.69275        -0.33167
C         57.39101        45.78654        -1.40151
C         56.56475        46.61295        -0.40923
C         57.44452        48.60759        -1.62069
C         56.43463        48.05690        -0.88823
C         58.77213        25.70818        -2.18741
C         59.78074        27.82161        -3.00449
C         58.66513        27.09176        -2.51836
C         59.69671        29.18520        -3.19904
C         58.49511        29.89421        -2.93178
C         59.53846        32.12219        -3.25717
C         58.44886        31.34549        -2.96941
C         59.51623        33.54652        -3.02978
C         58.52225        34.13290        -2.30958
C         59.97962        36.05443        -1.46002
C         58.63692        35.52581        -1.81469
C         60.13069        37.22888        -0.80811
C         58.96564        38.00099        -0.40018
C         60.15315        40.22282        -0.44079
C         58.97601        39.36893        -0.31961
C         60.06690        41.53551        -0.75295
C         58.78756        42.13881        -1.30923
C         59.83359        44.35199        -1.93166
C         58.72430        43.65847        -1.32040
C         59.81942        45.70337        -2.13883
C         58.66586        46.49288        -1.80764
C         58.61445        47.85078        -1.99115
O         51.99556        40.08041        -0.29774
O         38.05258        35.23917         0.05708
O         33.12792        35.09537        -1.78044
O         39.46413        37.33483        -0.70733
O         41.65925        21.31554         2.26393
O         27.73158        39.61223        -3.19368
O         48.40822        30.45855        -1.82464
O         57.05370        40.38569        -1.50064
O         44.51366        48.54053         2.20536
O         57.76275        36.51437        -2.50894
O         49.76093        44.22502         2.57321
O         48.82585        21.72596         1.94955
O         28.63517        33.51906         0.97829
O         33.14870        31.09843         2.75132
O         47.21359        35.31409         2.71395
O         36.01439        46.52477        -0.63028
O         25.53045        27.80604        -1.65819
O         24.16691        42.51058        -3.60830
O         37.39059        48.24840         2.38365
O         30.74424        36.31796        -2.41012
O         46.23797        30.87928         1.98286
O         54.78421        39.79797         2.18947
O         27.65268        38.17419        -0.02520
O         34.22615        48.65109         2.19805
O         55.20180        42.34117         1.99649
O         44.83958        22.78810         2.20877
O         51.19703        25.37139        -1.67955
O         33.10526        48.44571        -1.38091
O         50.10854        49.33005        -1.02824
O         35.49167        38.04100         2.05194
O         48.81731        38.78132        -0.34115
O         43.26703        55.17685         2.00462
O         31.38523        30.74103        -1.34699
O         29.85327        45.27610         0.40305
O         38.05313        53.28562        -1.06864
O         42.83345        27.03658        -0.86962
O         55.04472        48.60162         1.08595
O         48.89405        51.93253        -0.74751
O         38.98153        51.98433         2.23893
O         35.40465        35.63715         2.48468
O         53.94461        29.35137        -3.30907
O         50.95301        42.03441         2.62440
O         26.69201        46.31915        -3.80533
O         36.56099        21.11745         2.49790
O         30.01984        28.58269        -1.17034
O         56.82940        38.46707         1.70708
O         44.92800        44.07527        -0.79208
O         31.74004        22.19919         2.24927
O         43.68758        31.01027         2.77926
O         47.05681        22.82974        -0.86719
O         52.50770        23.09114         1.57675
O         47.27526        27.41284        -2.31876
O         45.61943        39.81390         2.64677
O         48.22030        25.48671         1.59426
O         42.96618        37.55189         2.53448
O         33.82857        31.71413        -0.82548
O         50.89776        30.51810        -2.38521
O         27.92942        44.17224        -3.49059
O         26.00264        31.34026         1.08359
O         38.22173        24.76599        -0.14942
O         37.86531        32.57186         0.02168
H         37.81558        33.40294        -0.50710
O         32.06310        26.03098        -0.29026
H         31.90614        26.80275        -0.87607
O         39.20205        20.18857         2.75240
H         38.39323        20.47545         3.23482
O         25.72803        41.99025        -0.29761
H         26.52382        41.57163         0.09383
O         27.40104        48.86721        -0.12065
H         27.99913        49.26754         0.54599
O         31.88653        39.78458         1.20831
H         31.16210        40.45513         1.29105
O         43.16209        39.83282        -1.10885
H         42.42463        40.11110        -1.69167
O         34.48189        33.30809         2.99909
H         33.81576        32.56256         3.15691
O         31.58243        42.17996        -2.71601
H         31.05699        42.03459        -3.53184
O         56.70504        32.65178        -3.96005
H         56.49001        31.91173        -4.56545
O         38.87332        48.44365        -1.02720
H         39.35643        47.73846        -1.52417
O         56.56611        45.70801        -2.60734
H         57.05652        45.17565        -3.26892
O         58.12835        36.32930         1.07049
H         58.04074        36.89942         1.86965
O         53.34896        35.29165         1.80854
H         52.66304        35.37550         2.51010
O         32.95521        39.92317        -2.31183
H         32.73115        40.83530        -2.62934
O         57.83378        32.76437        -0.48130
H         57.95587        33.52404         0.12773
O         36.51289        38.73623        -1.04814
H         36.45471        39.43421        -1.73367
O         41.02608        24.79463        -0.82891
H         41.46375        25.44944        -1.41622
O         41.60554        52.71688         2.79633
H         40.83189        52.26794         3.20781
O         45.13018        53.01248        -0.98127
H         45.96619        53.31677        -1.39810
O         40.21686        46.06741        -1.38634
H         41.08673        45.75254        -1.71824
O         30.95021        25.11485         3.07927
H         31.00255        24.24149         3.52033
O         30.99514        49.14017        -2.63876
H         31.97979        49.17359        -2.71023
O         39.47626        17.58511         0.86717
H         39.44503        18.23940         1.60122
O         38.83915        34.09600         3.27651
H         38.59432        33.27961         3.78114
O         42.54638        52.71912        -0.70871
H         43.35373        52.94582        -1.22658
O         42.98842        25.10555         2.27270
H         43.74268        24.57018         2.61962
O         53.14286        36.03989        -1.77429
H         53.58317        35.63940        -2.55491
O         43.91160        17.16958         0.73638
H         43.85234        17.70706         1.55423
O         33.71872        46.16555         2.24307
H         33.92620        46.93638         2.82507
O         41.41597        18.62507        -3.32841
H         40.63338        19.20511        -3.16174
O         44.39465        29.43029        -1.35557
H         44.94566        29.11651        -2.11822
O         40.40385        24.97448         2.80838
H         41.37846        24.96595         2.98840
O         46.54348        28.58389        -2.71641
H         47.23420        29.30159        -2.75103
O         40.63120        49.74087         3.04480
H         39.92535        49.14476         3.37580
O         48.81242        25.72116        -1.91274
H         49.01854        26.26701        -2.70079
O         44.32277        28.47855         2.13883
H         44.16255        29.03491         2.93441
O         57.25519        46.66431         0.86202
H         56.72428        47.25130         1.44744
O         39.79551        20.15559        -1.73283
H         40.31674        20.98574        -1.75558
O         47.92196        45.49788        -0.56915
H         47.08003        45.09857        -0.88140
O         32.20680        27.33587         3.15034
H         32.67153        28.12022         3.51092
O         30.56880        42.10766         0.79300
H         30.67115        42.82921         1.45092
O         44.30130        52.64204         2.57013
H         43.42132        52.62565         3.02152
O         27.43766        23.59972         2.01405
H         28.24252        23.09467         2.25833
O         52.28253        27.27824        -3.08499
H         52.07896        26.32633        -3.22741
O         50.74824        25.28096         1.94529
H         49.96187        25.17711         2.52879
O         45.16401        50.07987        -1.00510
H         45.10817        50.99533        -1.36698
O         58.78728        41.79002        -2.72061
H         58.24959        40.96398        -2.80064
O         47.96306        48.94190         2.58605
H         47.07372        49.15569         2.94544
O         50.58451        35.56222         2.63075
H         49.73447        35.59874         3.12290
O         36.30395        29.42804         3.72121
H         35.41716        29.77254         3.97071
O         42.85142        48.81684        -0.99985
H         42.18639        49.44683        -1.34906
O         35.16291        41.63291         2.19909
H         34.39588        41.09194         2.48545
O         28.29426        35.96165         0.81286
H         27.72068        36.71941         1.07630
O         42.73610        35.76708        -0.69299
H         42.54141        34.85700        -0.99983
O         41.34358        30.53844         3.51691
H         42.27218        30.48894         3.84304
O         54.98342        38.13761        -1.36453
H         54.18561        37.75353        -1.80354
O         27.24551        33.26711        -2.38603
H         26.54469        33.65199        -2.95508
O         37.57794        31.84875         3.60405
H         37.31720        30.98658         4.01986
O         37.86617        45.64599         2.49316
H         37.81730        46.54055         2.91060
H         21.93049        26.85053        -0.29913
H         22.01043        29.25036        -0.63001
H         22.08142        31.20753        -0.82246
H         22.23731        33.59769        -1.10766
H         22.37384        35.35555        -1.71901
H         22.39296        37.78461        -1.94101
H         22.41263        39.64733        -1.00605
H         22.23348        42.05478        -1.48074
H         22.12841        44.08134        -2.36138
H         22.31557        46.52678        -2.48491
H         25.13895        23.42619         0.80421
H         23.05215        24.73630         0.46837
H         25.62518        49.77160        -2.27101
H         23.67385        48.52942        -2.63752
H         27.01941        22.75788        -0.89995
H         27.44963        51.02560        -2.00176
H         29.17957        21.50457        -0.86494
H         29.39268        52.16419        -1.13218
H         32.99098        19.22445         0.08830
H         30.93672        20.24612        -0.35698
H         32.88267        54.25124         0.26584
H         30.81724        53.05165        -0.15409
H         34.51595        18.86391        -0.94444
H         34.53793        55.12470        -0.03395
H         36.62269        17.79024        -1.49369
H         36.58569        56.27348        -0.56501
H         40.28988        16.05968        -2.86030
H         38.32661        16.53998        -1.52608
H         40.55722        58.33290        -0.91564
H         38.39410        57.13680        -0.92565
H         42.87318        16.33227        -3.21153
H         43.01388        58.33308        -0.58461
H         44.86600        16.64941        -1.87590
H         45.08475        57.21626         0.12503
H         48.65315        18.34487        -0.15337
H         46.53133        17.20852        -0.67278
H         48.67031        54.98506         1.57196
H         46.50969        56.20926         1.60299
H         50.39553        19.28489         0.35008
H         50.45584        53.99951         1.36114
H         52.38319        20.59800         1.02167
H         52.50009        52.78175         0.86035
H         56.69513        23.52645         0.16620
H         54.88327        22.50178         1.52303
H         55.94782        50.83946        -1.12750
H         53.87516        51.99456        -0.60496
H         57.84586        23.98954        -1.32818
H         57.41791        49.67319        -1.89343
H         59.72364        25.18827        -2.36959
H         60.72839        27.29470        -3.18629
H         60.58635        29.72937        -3.54330
H         60.49010        31.67727        -3.58065
H         60.38481        34.13601        -3.35845
H         60.86439        35.48033        -1.77109
H         61.13656        37.64257        -0.63840
H         61.13465        39.78088        -0.20753
H         60.98623        42.13911        -0.79186
H         60.71477        43.76528        -2.22581
H         60.69952        46.20841        -2.56462
H         59.48165        48.38942        -2.40084
