         671
 CSIRO Nanostructure Databank - Neutral Graphene Oxide Data Set
C          6.13281        31.58973         0.46281
C          6.27492        32.92048         0.89548
C          8.22517        27.27357        -0.65929
C          8.10328        28.68806        -1.17480
C          7.06378        29.50261        -0.42351
C          8.18526        31.62063        -0.96972
C          7.04361        30.89646        -0.41443
C          8.21212        32.97456        -1.16517
C          6.90543        33.92529         0.14913
C          8.41636        35.95584        -0.36955
C          7.93555        34.92535         0.62898
C          8.42769        37.29802        -0.28948
C         10.71515        23.11302         0.22859
C         10.67009        24.52741         0.00521
C          9.46646        25.20364        -0.20164
C         10.69685        27.33028        -0.61553
C          9.42388        26.60327        -0.52325
C         10.70202        28.68144        -0.86011
C          9.46289        29.40859        -1.21798
C         10.72238        31.66348        -0.89877
C          9.47233        30.90240        -1.13897
C         10.70392        33.06675        -0.92619
C          9.41131        33.81309        -0.80803
C         10.71309        35.96577        -1.25405
C          9.37286        35.25208        -1.33329
C         10.70584        37.35455        -1.25492
C          9.36374        38.06697        -1.22194
C         10.68375        40.21921        -0.80675
C          9.49561        39.53171        -0.90772
C         10.63230        41.68867        -0.77980
C         13.23408        18.93666         0.91758
C         13.19723        20.34081         0.85503
C         11.97318        21.02246         0.60446
C         13.12127        23.24378         0.86799
C         11.89922        22.42176         0.52627
C         13.17830        24.48914         0.01500
C         11.92019        25.26285        -0.10670
C         13.22078        27.32033        -0.60341
C         11.95052        26.61060        -0.39977
C         13.20325        28.67999        -0.83088
C         11.94727        29.46011        -0.51993
C         13.15309        31.60975        -0.88676
C         11.95770        30.92901        -0.89208
C         13.16512        33.07895        -0.82491
C         11.90478        33.81338        -0.98272
C         13.17015        35.94536        -1.28141
C         11.93161        35.22606        -1.14407
C         13.14413        37.34789        -1.42831
C         11.93349        38.09243        -1.26832
C         13.22938        40.13516        -0.87341
C         11.96233        39.49753        -0.96565
C         13.44818        41.33362        -0.15515
C         11.60180        42.45894        -0.16589
C         13.27537        44.33758        -0.02134
C         11.97763        43.82626        -0.30026
C         13.37372        45.74423         0.12789
C         15.67569        14.69701         1.38248
C         15.34106        15.92023         1.95337
C         14.30309        16.82351         1.41159
C         15.72377        18.95707         0.79582
C         14.43202        18.17603         1.12239
C         15.65588        20.35479         1.46805
C         14.42611        21.11365         1.01348
C         15.66653        23.24945         0.90067
C         14.43018        22.48174         0.87844
C         15.70202        24.58535         0.47397
C         14.48910        25.19187        -0.11482
C         15.70456        27.30014        -0.45068
C         14.49730        26.63020        -0.43792
C         15.80338        28.67071        -1.07957
C         14.45215        29.40200        -1.15432
C         15.71336        31.62972        -0.94338
C         14.43366        30.89740        -1.07318
C         15.70939        33.04834        -1.20022
C         14.45655        33.81717        -1.03682
C         15.63909        35.91761        -1.58303
C         14.43412        35.25392        -1.36672
C         15.67821        37.34199        -1.73223
C         14.38606        38.04397        -1.77494
C         15.72273        40.20309        -1.31842
C         14.41597        39.56681        -1.52152
C         15.77593        41.51627        -0.79188
C         14.57692        42.15024        -0.29559
C         15.75911        44.25702         0.05895
C         14.53740        43.57474        -0.00250
C         15.83487        45.68165         0.22206
C         14.58837        46.42651         0.31587
C         15.77346        48.55883         0.82909
C         14.59495        47.80869         0.60823
C         15.63474        49.94383         1.06616
C         18.36154        10.65254         0.28858
C         18.33371        11.99789         0.78574
C         17.12277        12.56057         1.24138
C         18.28962        14.74580         1.61838
C         16.97223        13.98426         1.61158
C         18.36279        16.18269         1.22791
C         17.23856        16.96589         0.69002
C         18.26521        19.07701         1.25141
C         17.00883        18.25116         1.15173
C         18.15663        20.51234         1.69694
C         16.92927        21.17462         1.40457
C         18.10994        23.34136         1.25676
C         16.90509        22.58835         1.23209
C         18.13243        24.72016         0.91663
C         16.91422        25.34066         0.47067
C         18.16412        27.42278         0.00636
C         16.93385        26.68532         0.00165
C         18.18448        28.81525        -0.27790
C         16.84088        29.50430        -0.31055
C         18.15699        31.60346        -0.82884
C         16.90037        30.93241        -0.77676
C         18.13233        33.06025        -0.96374
C         16.88354        33.73449        -1.32280
C         18.18819        35.86759        -1.61336
C         16.89948        35.13298        -1.86641
C         18.19748        37.36511        -1.47251
C         16.87880        38.05620        -1.74060
C         18.18021        40.17148        -1.51015
C         16.91761        39.48545        -1.58499
C         18.19155        41.53539        -1.10890
C         17.02265        42.17965        -0.68628
C         18.29720        44.26917        -0.08401
C         17.04468        43.46085         0.12974
C         18.31232        45.64030         0.09070
C         17.05579        46.36519         0.26553
C         18.41333        48.47066         0.59886
C         17.05864        47.84467         0.46763
C         18.62487        49.72882         1.34119
C         16.69692        50.82159         1.49785
C         18.33705        52.76890         1.44041
C         16.97310        52.14410         1.26750
C         18.47329        54.09588         2.06669
C         20.85524         6.65992        -1.15123
C         20.82706         8.04994        -0.92166
C         19.59762         8.71160        -0.60858
C         20.74768        10.89515        -0.34344
C         19.52998        10.06107        -0.21986
C         20.80017        12.17056         0.39940
C         19.58934        12.71173         0.86691
C         20.83862        14.82554         1.45464
C         19.62229        13.97017         1.69518
C         20.80032        16.18800         1.61181
C         19.52143        16.86506         1.51127
C         20.69477        19.05658         2.10528
C         19.44724        18.31558         1.78436
C         20.61831        20.55195         2.19955
C         19.33090        21.22655         1.92424
C         20.56711        23.45375         1.87965
C         19.42217        22.61483         1.35345
C         20.56725        24.92394         1.52529
C         19.35031        25.47193         0.90309
C         20.63727        27.51086         0.33240
C         19.39635        26.79038         0.40045
C         20.65014        28.86837        -0.10567
C         19.38855        29.53132        -0.35247
C         20.63233        31.65148        -0.87287
C         19.38341        30.94132        -0.67395
C         20.66138        33.00517        -1.15371
C         19.43445        33.79548        -1.10206
C         20.64543        35.89283        -1.77925
C         19.38031        35.20355        -1.55654
C         20.64590        37.23351        -2.01027
C         19.36024        38.02893        -2.20650
C         20.65242        40.12947        -1.65634
C         19.42515        39.48619        -1.77889
C         20.72578        41.51832        -1.30065
C         19.45400        42.34664        -1.26583
C         20.81497        44.26271        -0.46584
C         19.56903        43.45296        -0.21346
C         20.80169        45.63661        -0.13370
C         19.60972        46.32345         0.11144
C         20.83910        48.47941         0.21354
C         19.67639        47.73714         0.34905
C         20.81859        50.00131         0.26645
C         19.66524        50.53325         1.06543
C         20.92720        52.61608         1.70210
C         19.63974        52.00169         1.29331
C         20.93897        53.91548         2.18133
C         19.70904        54.66584         2.34888
C         21.02950        56.69286         2.93906
C         19.81216        56.03355         2.80913
C         21.10470        58.07427         3.32809
C         23.30028         3.90459        -1.74880
C         22.09964         4.56258        -1.56571
C         23.31288         6.68968        -1.32747
C         22.07455         5.97072        -1.35067
C         23.30034         8.10211        -1.05902
C         22.07405         8.76059        -0.89186
C         23.32128        10.87362        -0.29323
C         22.06669        10.21438        -0.67876
C         23.29344        12.19321         0.21216
C         22.05556        12.80453         0.58836
C         23.22015        14.98409         0.74697
C         22.14969        14.09545         1.38080
C         23.26029        16.36298         1.35287
C         22.02564        16.99151         1.63159
C         23.18215        19.13857         1.77418
C         21.99972        18.38840         1.87074
C         23.12015        20.64006         1.59661
C         21.89212        21.32653         2.14695
C         23.04385        23.52685         2.00017
C         21.87826        22.80169         1.97300
C         23.07261        24.93590         1.64555
C         21.86255        25.59428         1.33066
C         23.12325        27.54522         0.56394
C         21.88587        26.88547         0.73312
C         23.17534        28.80956        -0.25469
C         21.87344        29.57501        -0.25109
C         23.10946        31.60176        -0.87982
C         21.89731        30.93073        -0.68990
C         23.11797        32.86215        -1.70920
C         21.95973        33.78159        -1.26038
C         23.14304        35.73842        -2.56057
C         21.79500        34.97673        -2.21432
C         23.18144        37.12552        -1.83282
C         21.93087        37.92374        -2.19411
C         23.22588        39.99856        -1.54514
C         21.91940        39.39780        -1.93817
C         23.23027        41.45254        -1.25084
C         21.93608        42.17752        -1.16294
C         23.24200        44.28727        -0.98144
C         21.98586        43.58941        -0.86592
C         23.23541        45.73728        -0.73405
C         22.12761        46.30294         0.13701
C         23.30756        48.49193         0.04665
C         22.11587        47.81352         0.07015
C         23.34040        50.00370         0.15684
C         22.12012        50.46159         0.98593
C         23.38888        52.54451         1.60819
C         22.15371        51.91117         1.42008
C         23.46516        53.84881         2.16290
C         22.22122        54.47371         2.73557
C         23.50335        56.61627         2.77305
C         22.28184        55.97573         2.75082
C         23.55799        58.12181         2.79296
C         22.31417        58.74916         3.38892
C         23.65676        60.67964         4.08109
C         22.41450        60.08037         3.87768
C         24.51540         4.62115        -1.75631
C         25.83532         6.75104        -1.67791
C         24.53085         5.99907        -1.55731
C         25.79113         8.16539        -1.14270
C         24.55096         8.82149        -0.91593
C         25.78568        10.85935        -0.22935
C         24.55157        10.18174        -0.47082
C         25.80112        12.21789         0.21867
C         24.55447        12.88751         0.41584
C         25.73550        14.95330         0.93508
C         24.54371        14.26824         0.73952
C         25.78297        16.37285         1.45783
C         24.45452        17.07874         1.42975
C         25.67304        19.22844         1.53260
C         24.43706        18.48766         1.60694
C         25.63658        20.69225         1.64074
C         24.36847        21.33605         2.08969
C         25.58538        23.57904         2.12755
C         24.32803        22.83183         2.25020
C         25.57523        24.92222         1.75350
C         24.32288        25.60638         1.47858
C         25.59694        27.65233         0.85375
C         24.34233        26.94284         0.97879
C         25.59005        29.05284         0.41362
C         24.39793        29.64519         0.02604
C         25.62275        31.79553        -0.55163
C         24.32350        31.13878        -0.13616
C         25.61288        33.03793        -1.15908
C         24.40783        33.67452        -1.68139
C         25.67253        35.69303        -2.58139
C         24.40716        34.96306        -2.15596
C         25.68409        37.19072        -2.26006
C         24.47149        37.89243        -2.06970
C         25.68781        40.02774        -2.06528
C         24.47669        39.29626        -1.95805
C         25.71847        41.46284        -1.77691
C         24.41289        42.22832        -1.77673
C         25.69632        44.33633        -1.18646
C         24.44851        43.64885        -1.26714
C         25.77911        45.70697        -0.94775
C         24.53696        46.47988        -0.77113
C         25.84815        48.53163        -0.19071
C         24.61888        47.72905         0.08668
C         25.88518        50.01966        -0.01718
C         24.65758        50.46140         0.79821
C         25.95763        52.57181         1.34154
C         24.63510        51.94971         1.05249
C         25.97420        53.68486         2.36073
C         24.70090        54.50282         2.35076
C         26.01389        56.53715         2.85482
C         24.73995        55.87401         2.67730
C         26.02121        57.90630         3.25518
C         24.85154        58.65958         3.36975
C         24.85516        59.97734         3.87493
C         26.98936         8.84459        -0.95225
C         28.22858        10.91938        -0.40471
C         27.01866        10.19647        -0.50588
C         28.29099        12.25559         0.04556
C         27.04514        12.90558         0.43239
C         28.13429        15.04253         1.21015
C         26.97788        14.26904         0.85071
C         28.22915        16.44993         1.06037
C         26.91643        17.17526         0.80299
C         28.13349        19.32284         1.31986
C         26.92000        18.61818         1.26818
C         28.18894        20.72591         1.67621
C         26.90440        21.47194         1.71134
C         28.10701        23.60788         2.18140
C         26.85201        22.82523         2.43955
C         28.06571        24.94462         1.89503
C         26.81687        25.64480         1.62915
C         28.08270        27.70488         0.95907
C         26.79567        26.99986         1.21619
C         28.06572        29.23425         0.96766
C         26.80981        29.83916         0.38719
C         28.10115        31.89627        -0.12942
C         26.85232        31.16671        -0.08381
C         28.10181        33.31531        -0.52712
C         26.82836        33.88085        -1.10683
C         28.23963        35.75150        -2.17423
C         26.94927        35.00436        -2.08792
C         28.19374        37.17753        -2.75205
C         26.89928        37.90296        -2.35974
C         28.13793        40.06732        -2.55396
C         26.89166        39.31320        -2.30053
C         28.15606        41.56088        -2.14728
C         26.89719        42.14808        -1.65637
C         28.19843        44.28154        -1.44895
C         26.94880        43.50912        -0.98746
C         28.23229        45.69639        -0.92281
C         27.03793        46.38019        -0.77880
C         28.34630        48.42591        -0.06102
C         27.08297        47.89034        -0.72533
C         28.36733        49.72066         0.49537
C         27.17407        50.50531         0.62921
C         28.44495        52.37622         1.62033
C         27.19758        51.76039         1.21399
C         28.43685        53.75081         2.06138
C         27.26364        54.46498         2.31310
C         27.22547        55.83521         2.66316
C         29.54806        12.93392        -0.10126
C         30.81892        15.13462         0.20653
C         29.89389        14.13227         0.54420
C         30.71512        16.49280         0.64547
C         29.44509        17.12429         0.96772
C         30.65286        19.25919         1.42426
C         29.39549        18.64329         0.83168
C         30.65101        20.69412         1.88168
C         29.36474        21.42276         1.89047
C         30.64599        23.60581         2.06471
C         29.39089        22.84606         2.44763
C         30.60933        24.96783         1.96387
C         29.32704        25.75286         2.09168
C         30.63946        27.80819         1.35525
C         29.37691        27.02089         1.26439
C         30.54599        29.26912         1.17112
C         29.36729        29.80104         0.36472
C         30.54306        32.04021         0.16947
C         29.33688        31.30913         0.21069
C         30.59032        33.36605        -0.36827
C         29.39152        33.99122        -0.80995
C         30.64427        35.97500        -1.52918
C         29.42474        35.26294        -1.41477
C         30.66046        37.31895        -2.06059
C         29.44982        37.96467        -2.42989
C         30.63171        40.13317        -2.56065
C         29.43898        39.38072        -2.53794
C         30.63907        41.53462        -2.25381
C         29.45407        42.17071        -1.86507
C         30.70042        44.34013        -1.51008
C         29.49060        43.50741        -1.16791
C         30.71195        45.68408        -1.13755
C         29.49299        46.35881        -0.74448
C         30.85482        48.16511         0.32266
C         29.52715        47.65795        -0.18967
C         30.80718        49.59115         0.79391
C         29.63109        50.30821         0.93088
C         29.62457        51.64984         1.45522
C         31.87546        17.30746         0.53051
C         33.09552        19.39791         1.02383
C         31.92179        18.65255         0.95567
C         33.10712        20.78449         1.39722
C         31.90769        21.46079         1.76644
C         33.12597        23.57631         1.85833
C         31.90333        22.86917         1.93192
C         33.15741        25.01781         2.16294
C         31.84503        25.77685         2.10277
C         33.07635        27.96823         1.65041
C         31.83353        27.22504         1.74579
C         33.08209        29.32239         1.29161
C         31.81396        30.08337         1.26287
C         33.08217        32.04685         0.26169
C         31.79547        31.56365         0.87902
C         33.08774        33.37045        -0.30885
C         31.84461        34.03907        -0.56703
C         33.10441        36.02615        -1.34491
C         31.86348        35.35213        -1.12069
C         33.09664        37.38191        -1.83156
C         31.88912        38.03391        -2.14843
C         33.20214        40.16638        -2.83711
C         31.88361        39.35829        -2.92172
C         33.13742        41.70805        -2.85660
C         31.86690        42.31661        -2.29263
C         33.08726        44.52135        -2.34762
C         31.85919        43.68102        -2.03199
C         33.07430        45.88334        -1.70013
C         31.95532        46.45122        -1.19169
C         31.95441        47.90296        -0.74062
C         34.30571        21.52273         1.27581
C         35.55223        23.65251         1.32050
C         34.33431        22.90658         1.50776
C         35.61842        25.02577         1.47549
C         34.44146        25.76987         1.97599
C         35.57146        27.91466         1.16579
C         34.38686        27.27719         1.77704
C         35.51735        29.25667         0.80664
C         34.30135        29.99647         0.92467
C         35.55056        32.16267         0.50032
C         34.26624        31.37024         0.52111
C         35.58301        33.19762        -0.67375
C         34.30534        33.99326        -0.66405
C         35.59398        35.95158        -1.44741
C         34.33176        35.32994        -1.12517
C         35.49354        37.21401        -2.09059
C         34.35465        38.00395        -2.11652
C         35.63414        40.24968        -1.91516
C         34.47885        39.45092        -2.47744
C         35.49009        41.61688        -1.78828
C         34.33566        42.37049        -2.18094
C         34.31009        43.71875        -1.97787
C         36.79967        25.76619         1.17488
C         38.01311        27.85432         0.71986
C         36.78858        27.14929         1.02262
C         38.02214        29.18943         0.41570
C         36.71497        29.89441         0.11869
C         38.06031        32.08781         0.59546
C         36.77899        31.35037         0.42925
C         38.02622        33.42554        -0.13490
C         36.85663        34.02851        -0.58615
C         38.08921        36.15665        -0.91524
C         36.85632        35.38717        -1.05995
C         38.19890        37.57472        -0.95378
C         37.27567        38.39140        -1.63692
C         36.83995        39.68272        -1.37032
C         39.25610        29.91886         0.25893
C         40.52620        32.03448         0.15203
C         39.29688        31.28751         0.26587
C         40.51426        33.39105         0.01356
C         39.27765        34.11944        -0.19885
C         39.27377        35.46667        -0.52545
O         25.27991        52.82579         0.07252
O         30.65361        19.55278         2.84350
O         21.29496        10.96784        -1.69735
O         28.83296        26.97793        -0.10320
O         14.21395        39.01231        -2.85405
O         23.37312        40.48665        -0.15507
O         36.63169        37.73172        -2.70450
O         24.30407        21.87630         3.42936
O         26.18405        21.41057         0.44009
O         19.84675        18.49257         3.17974
O          6.99193        33.69515        -1.23994
O         14.36590        30.17468        -2.40647
O         13.95676        33.58100         0.34236
O         19.06763        52.70386         0.11574
O         12.44838        41.74695         0.71834
O         17.66676        50.12371         2.26806
O         28.02633        41.10920        -3.54685
O         17.66215        48.61339        -0.66712
O         21.35731        20.94571         3.43963
O         27.87692        34.71893        -3.16902
O         34.14726        39.72915        -3.88657
O         23.61532        46.55882        -1.89372
O         32.48201        25.43593         3.38403
O         27.20063        34.20852         0.26760
O         21.99392        38.85058        -3.31273
O         13.92383        24.35130        -1.22544
O         23.16437        35.96368        -3.94274
O         30.92828        29.92537         2.42335
O         18.76537        33.71063         0.22681
O         34.70673        26.67415         3.08483
O          9.14519        34.05288         0.67068
O          9.59208        30.19755        -2.46082
O         29.19319        14.36960         1.77381
O         17.58050        14.46170         2.89744
O         20.29299        24.42988         2.90474
O         31.75080        48.74917        -1.87375
H         30.98798        48.41037        -2.38627
O         35.55770        32.95870         1.72726
H         34.65554        33.32520         1.85625
O         29.27057        26.22870         3.46853
H         29.50680        25.47968         4.05771
O         26.96485        43.28047         0.44531
H         27.89076        43.08005         0.72148
O         23.05267        20.87063         0.16010
H         23.89407        20.56593        -0.24372
O         19.34534        43.01826        -2.55171
H         19.34401        42.33694        -3.25623
O         26.85071        22.49687         3.87113
H         25.93256        22.19001         4.09682
O         31.24470        47.34345         1.46869
H         30.56707        47.46330         2.16667
O         23.10193        36.85454        -0.40131
H         23.21052        37.69802         0.08971
O         22.27572        34.24306         0.07155
H         22.44788        35.21846         0.05239
O         19.83616        22.35314        -0.05008
H         19.33834        21.56703        -0.37322
O         31.76921        32.30941         2.14785
H         31.19536        31.78545         2.75781
O         18.64229        19.31199        -0.18217
H         17.79872        19.42374        -0.68194
O         28.15641        37.07953        -4.19249
H         27.44074        36.42816        -4.41239
O         29.54313        29.34397        -0.99407
H         29.37116        28.36736        -1.01882
O         19.83097        13.48629         3.06818
H         18.95639        13.57451         3.52668
O         23.29950        50.61787        -1.14500
H         22.37758        50.53275        -1.50708
O         21.30773        34.44836        -3.46908
H         21.80903        35.00684        -4.14925
O         22.21666        54.06074         4.17177
H         23.07997        54.33721         4.54848
O         25.90611        50.60336        -1.35649
H         24.96490        50.75719        -1.63192
O         22.90159        32.39615        -3.05744
H         22.33687        33.06644        -3.52868
O         16.35370        29.54527         1.06556
H         16.96386        30.10525         1.59066
O         16.88327        34.94769        -3.33620
H         17.17068        35.79236        -3.74746
O         31.71599        38.97471        -4.31096
H         32.61803        38.81015        -4.67055
O         22.15845        49.69953         2.23947
H         21.43412        50.02928         2.81421
O         25.97625        52.99287         3.65917
H         26.23335        53.64537         4.34414
O         29.43515        18.88174        -0.62110
H         29.20924        19.82395        -0.77697
O         17.11360        42.99043         1.52766
H         18.02200        42.61214         1.64586
O         16.50502        16.42935        -0.31311
H         15.94488        17.14371        -0.69762
O         26.70907        17.18272        -0.62815
H         27.43594        17.71048        -1.02831
O         24.80902        49.83128         2.10020
H         23.93275        49.89311         2.56059
O         15.70454        19.12749        -0.66242
H         14.89515        19.63459        -0.89655
O         28.08665        29.62092         2.36788
H         27.23046        29.37474         2.77642
O         33.17251        42.08572        -4.26318
H         33.80578        41.47013        -4.70108
O         28.13155        44.39568        -2.89186
H         27.52411        45.13018        -3.12163
O         19.77815        42.77305         1.07380
H         20.22073        43.40624         1.67926
O         11.92263        29.54308         0.96493
H         11.96662        28.62696         1.31569
O         38.20360        32.43120         2.01885
H         37.33880        32.80985         2.30798
O         22.84220        15.20687        -0.64220
H         22.79618        14.33359        -1.08818
O         22.42597        45.92347         1.51578
H         23.30801        46.32260         1.74652
O         24.08789        42.35472        -3.20527
H         24.85576        42.76061        -3.66147
O         19.10131        37.99581        -3.63226
H         19.93505        38.26283        -4.08255
O          8.90280        35.26043        -2.68389
H          8.72821        36.20577        -2.92600
O         15.44408        20.06611         2.88470
H         15.57711        20.89524         3.38971
O         29.52358        22.68920         3.89268
H         28.64029        22.40727         4.23752
O         18.47476        37.60269        -0.05218
H         17.93313        36.97997         0.47731
O         20.71168        50.52593        -1.07933
H         20.15400        51.33768        -1.04735
O         12.93644        23.72539         2.23839
H         12.77114        22.94550         2.80913
O         29.59382        43.24827         0.27716
H         30.49643        42.91000         0.45704
O          7.60418        28.57377        -2.53922
H          8.08665        29.25614        -3.06698
O         23.56549        58.54203         1.38322
H         23.59853        59.52213         1.37479
O         35.61041        32.41725        -1.88763
H         35.53372        33.02685        -2.65052
O         26.15613        16.27833         2.86449
H         25.42922        15.83074         3.34720
O         22.56722        13.77847         2.73470
H         21.75528        13.48213         3.21384
O         15.91439        16.41320         3.06503
H         16.63820        15.80388         3.36149
O         36.48756        29.73321        -1.32717
H         36.47061        28.77077        -1.51330
O         24.80793        47.22815         1.47383
H         24.92596        48.04867         2.02719
O         24.07877        31.66654         1.23430
H         23.76400        32.59518         1.14045
O         33.12210        44.77279        -3.78100
H         33.10716        43.88721        -4.22785
O         23.34202        28.36435        -1.65971
H         22.56337        27.81382        -1.89087
O         25.71114        35.61897        -4.02421
H         24.76741        35.81515        -4.32867
O         16.28433        28.46365        -2.42079
H         15.78903        29.08590        -3.00491
O         27.17525        48.31602        -2.14095
H         26.86970        49.26172        -2.16837
O          8.77796        37.99243        -2.57126
H          9.34926        38.52228        -3.16722
O         26.90719         6.01564        -1.07282
H         26.70921         5.91443        -0.11949
H          5.46721        30.94437         1.05895
H          5.88962        33.17406         1.89671
H          7.28598        26.71144        -0.53978
H          6.24520        28.95845         0.07399
H          7.74877        35.31339         1.65429
H          7.82943        37.84705         0.45412
H          9.77863        22.54265         0.12699
H          8.51730        24.65030        -0.14184
H          8.55537        40.10414        -0.87952
H          9.82012        42.17511        -1.34082
H         12.27365        18.39637         0.89991
H         11.06840        20.42598         0.41051
H         11.21422        44.55270        -0.62115
H         12.44208        46.33054         0.14460
H         15.12209        14.40253         0.47883
H         13.28324        16.40411         1.33633
H         13.62443        48.31730         0.71705
H         14.62824        50.37115         0.92797
H         17.43950        10.05367         0.33930
H         16.20321        11.97341         1.09575
H         16.24976        52.75069         0.70104
H         17.55838        54.66318         2.29661
H         19.91170         6.09416        -1.15831
H         18.68064         8.10397        -0.57085
H         18.88029        56.59654         2.97202
H         20.17942        58.58800         3.63329
H         23.31398         2.81722        -1.90741
H         21.15114         4.00682        -1.57978
H         23.70026        61.70067         4.48582
H         21.49708        60.61629         4.16302
H         25.46396         4.09230        -1.92497
H         26.08800         6.81458        -2.77514
H         26.98484        58.37091         3.51808
H         25.80988        60.43695         4.17088
H         27.93693         8.32416        -1.15523
H         29.16372        10.41986        -0.69957
H         29.40612        54.26474         2.15939
H         28.17271        56.39098         2.74261
H         30.26647        12.50065        -0.81366
H         31.64307        14.88717        -0.47886
H         31.75646        50.04727         1.11549
H         30.58790        52.10745         1.72714
H         32.81030        16.83174         0.19659
H         34.04433        18.93814         0.70845
H         34.00476        46.46945        -1.76022
H         32.94949        48.16690        -0.30272
H         35.22879        21.00521         0.97685
H         36.44663        23.10696         0.98472
H         36.32719        42.18847        -1.35721
H         35.19170        44.22727        -1.55647
H         37.72934        25.21386         0.97256
H         38.96424        27.30975         0.82310
H         39.02847        38.03777        -0.39778
H         37.41536        40.30586        -0.66913
H         40.19280        29.34408         0.17893
H         41.48019        31.48639         0.17363
H         41.45915        33.94977        -0.05591
H         40.22028        36.02724        -0.50663
