         314
 CSIRO Nanostructure Databank - Neutral Graphene Oxide Data Set
C         29.95398        56.97021         0.42284
C         30.06983        58.38840         0.46984
C         28.93222        59.17539         0.72071
C         30.21807        61.23938         1.02202
C         29.00950        60.56254         0.95477
C         32.79102        52.91422        -0.35532
C         32.64863        54.28722        -0.47018
C         31.43160        54.86906         0.07578
C         32.80302        57.28424        -0.67920
C         30.95726        56.15106        -0.17514
C         32.71629        58.52462         0.11781
C         31.40309        59.08444         0.60418
C         32.67306        61.23874         0.93996
C         31.45941        60.55459         0.86408
C         35.23411        48.63746        -0.33303
C         35.22387        50.04155        -0.49403
C         34.01848        50.79009        -0.42934
C         35.23028        52.87206        -0.89709
C         34.00475        52.17917        -0.60374
C         35.15292        54.32732        -1.19478
C         33.82159        55.05252        -1.03784
C         35.20366        57.23533        -0.58046
C         33.91427        56.51622        -0.75123
C         35.17568        58.50256         0.21370
C         33.95031        59.30856         0.23436
C         35.22216        61.28155         0.93079
C         33.95777        60.61095         0.73541
C         37.73882        44.37032         0.12753
C         37.68340        45.79534        -0.02219
C         36.47174        46.49449        -0.15299
C         37.68237        48.62989        -0.45426
C         36.44250        47.91193        -0.30251
C         37.67610        50.01395        -0.71333
C         36.46091        50.74160        -0.71721
C         37.72478        52.86766        -0.98754
C         36.44257        52.16864        -0.92087
C         37.74747        54.34979        -1.10130
C         36.46466        55.10249        -1.22147
C         37.74899        57.18519        -0.29461
C         36.50105        56.56533        -0.84582
C         37.72351        58.46599         0.21174
C         36.46553        59.17204         0.54652
C         37.71607        61.29054         0.92774
C         36.45790        60.63407         0.79713
C         40.20883        40.11926         0.48512
C         40.19495        41.54196         0.51847
C         38.99048        42.24295         0.35282
C         40.18119        44.38599         0.51096
C         38.93948        43.66443         0.31910
C         40.13056        45.85851         0.44454
C         38.91183        46.54292        -0.01349
C         40.17025        48.63605        -0.46971
C         38.92759        47.91980        -0.29769
C         40.22386        49.99877        -0.76519
C         38.94340        50.70072        -1.16459
C         40.17372        52.90587        -0.67500
C         38.90602        52.18629        -0.92087
C         40.21007        54.37630        -0.78127
C         39.00301        55.07568        -0.76762
C         40.22956        57.09777        -0.16950
C         39.00110        56.46254        -0.43795
C         40.24487        58.40816         0.49196
C         38.93564        59.12226         0.72548
C         40.19474        61.23131         1.07330
C         38.94839        60.59801         0.90403
C         42.62701        35.82366         0.66386
C         42.59954        37.19954         0.75001
C         41.42333        37.97358         0.50514
C         42.67233        40.12762         0.65668
C         41.39700        39.37702         0.57146
C         42.65256        41.59032         0.83749
C         41.44008        42.27772         0.71499
C         42.65169        44.47649         0.86858
C         41.38082        43.71995         0.71925
C         42.71263        45.84483         0.33577
C         41.46103        46.58793         0.26019
C         42.75990        48.56051        -0.74711
C         41.41633        47.86524        -0.48312
C         42.72429        50.03798        -0.76477
C         41.47379        50.68806        -0.80835
C         42.72735        52.91870        -0.75022
C         41.46680        52.15695        -0.61180
C         42.68593        54.32249        -0.88362
C         41.46478        55.05461        -0.74874
C         42.69232        57.16557        -0.22643
C         41.47218        56.46196        -0.45705
C         42.68024        58.50213         0.27954
C         41.49202        59.17241         0.55447
C         42.67263        61.26631         1.10638
C         41.45834        60.56649         0.95133
C         44.86251        33.22970        -0.41562
C         43.81096        33.69200         0.33272
C         45.09577        35.80100         0.73292
C         43.84922        35.00892         1.04649
C         45.15097        37.18703         1.16550
C         43.81323        37.91670         1.22831
C         45.12633        40.09941         1.60547
C         43.92479        39.38484         1.00158
C         45.12492        41.55901         1.17394
C         43.93720        42.24006         0.98224
C         45.21064        44.41581         0.61646
C         43.95687        43.72281         0.98452
C         45.17724        45.75695         0.28224
C         43.93642        46.49902         0.11254
C         45.22605        48.59387        -0.38543
C         43.97030        47.85745        -0.31211
C         45.23015        50.09144        -0.53638
C         43.92769        50.78426        -0.60596
C         45.21974        52.90488        -0.69581
C         43.94530        52.20006        -0.63671
C         45.20251        54.27223        -1.09456
C         43.94013        55.05326        -1.11134
C         45.26878        57.03445        -0.04606
C         43.95447        56.54902        -0.66403
C         45.21600        58.42699         0.57908
C         43.93797        59.16881         0.68861
C         45.15232        61.31517         0.97403
C         43.94947        60.64226         0.91504
C         46.06542        33.96147        -0.54038
C         47.40105        36.01692        -0.09365
C         46.18487        35.25723         0.02342
C         47.53335        37.31805         0.39022
C         46.37352        38.00471         0.96453
C         47.76131        40.01524         1.43402
C         46.40610        39.34680         1.23758
C         47.72593        41.54188         1.32417
C         46.40459        42.30339         1.25922
C         47.68699        44.33476         0.62747
C         46.45817        43.70174         0.77755
C         47.73535        45.73733         0.18662
C         46.44294        46.45840         0.00892
C         47.70782        48.69084         0.37915
C         46.43036        47.93955         0.19386
C         47.72899        50.13697         0.04876
C         46.40303        50.86802         0.06875
C         47.70660        52.89677        -0.76517
C         46.45241        52.25138        -0.52921
C         47.70560        54.29379        -1.14542
C         46.42601        54.84632        -1.42925
C         47.73422        57.23790        -0.46721
C         46.49226        56.88978        -0.92073
C         47.78244        58.51389         0.29950
C         46.50838        59.18478         0.67907
C         47.73423        61.32954         0.93066
C         46.44490        60.69840         0.47748
C         48.73810        38.04877         0.20548
C         50.05837        40.09241         0.41822
C         48.86792        39.38370         0.61166
C         50.15202        41.50406         0.61756
C         48.95362        42.24754         0.90327
C         50.18076        44.35779         0.52095
C         48.94758        43.64055         0.73696
C         50.21367        45.77510         0.41630
C         48.97741        46.52636         0.37008
C         50.23321        48.64434         0.42873
C         48.96494        47.90109         0.37852
C         50.21489        50.15276         0.16262
C         48.91301        50.82679        -0.10730
C         50.17498        52.80990        -1.01112
C         48.92344        52.19381        -0.56886
C         50.15221        54.36815        -1.30595
C         48.89504        55.09438        -1.11937
C         50.18402        57.19623        -0.70567
C         48.94986        56.52070        -0.85283
C         50.18631        58.67740        -0.50783
C         48.93954        59.38658        -0.05177
C         50.19778        61.35258         0.81491
C         48.95963        60.73560         0.59522
C         51.35867        42.19765         0.42896
C         52.63645        44.31458         0.32508
C         51.41249        43.61844         0.44518
C         52.68222        45.72710         0.26258
C         51.44706        46.46935         0.29319
C         52.67368        48.59000        -0.03974
C         51.47767        47.89193         0.20372
C         52.65357        50.00952        -0.28223
C         51.47493        50.77054        -0.28297
C         52.67913        52.85053        -0.78610
C         51.47652        52.15394        -0.70719
C         52.74647        54.30520        -1.07926
C         51.44913        55.11412        -1.28017
C         52.67150        57.18253        -0.62749
C         51.44962        56.53706        -0.86870
C         52.71498        58.54362         0.06063
C         51.48508        59.38265        -0.24772
C         52.72130        61.18111         1.12414
C         51.46128        60.73916         0.40000
C         53.89657        46.44315         0.17891
C         55.15605        48.53062        -0.00948
C         53.92855        47.85057         0.00484
C         55.25427        49.91328        -0.43973
C         53.90280        50.68479        -0.67251
C         55.13430        52.83058        -0.41753
C         53.93722        52.15967        -0.59084
C         55.12414        54.29963        -0.07851
C         53.92506        55.04769        -0.63132
C         55.12950        57.13425        -0.06078
C         53.89030        56.42784        -0.57152
C         55.15961        58.62659        -0.38154
C         53.99017        59.36361        -0.12442
C         55.12185        61.45437         0.73402
C         53.99399        60.68638         0.45079
C         56.43226        50.72636        -0.20767
C         57.61156        52.86546        -0.25895
C         56.40032        52.12334        -0.30385
C         57.64609        54.28063        -0.40471
C         56.42038        54.98116        -0.41490
C         57.70916        57.16217        -0.63703
C         56.37206        56.41761        -0.58432
C         57.67746        58.60491        -0.35809
C         56.41975        59.22819        -0.57505
C         57.65563        61.40701         0.82470
C         56.42205        61.18256         0.22380
C         58.89017        54.99744        -0.41758
C         60.11543        57.14628        -0.17976
C         58.94438        56.39471        -0.42446
C         60.08802        58.54141         0.05643
C         58.84841        59.29781         0.02064
C         60.07548        61.21222         0.95481
C         58.84603        60.65513         0.53302
C         61.29380        59.19437         0.42298
C         61.28284        60.51609         0.85102
O         47.16086        45.97131        -1.16849
O         50.09592        53.36969        -2.35696
O         55.10580        57.03859         1.36101
O         45.51366        49.24715        -1.68787
O         44.42020        37.44276         2.44329
O         43.90351        56.15514        -2.06161
O         40.74262        52.49425         0.64740
O         49.29621        59.36968        -1.46220
O         46.79826        48.36962         1.54232
O         47.12042        42.11319         2.54555
O         35.73410        58.38454         1.57434
O         50.30629        49.62025         1.52839
O         40.76580        46.59370         1.55140
O         46.41347        56.09666        -2.06486
O         31.61391        56.82652        -1.22562
O         47.39763        58.63097         1.70616
O         32.23675        58.28026         1.51869
O         52.29383        54.74961        -2.40362
O         56.95242        56.85150        -1.85416
O         39.56587        58.38151         1.81937
O         35.88674        57.42360        -1.87830
O         34.28390        54.61665        -2.34710
O         42.03537        47.83972        -1.80383
O         56.45179        60.54609        -1.04043
O         43.66984        39.72075        -0.38805
O         44.51011        58.42077         1.86073
O         51.69261        60.56035        -1.06272
O         43.31761        44.29717         2.17883
O         37.23753        54.80510        -2.42463
O         54.61879        50.11326        -1.77268
O         52.73008        62.60857         1.23901
H         52.73214        62.98225         0.33328
O         45.52202        56.11788         1.06372
H         45.23675        56.57449         1.89022
O         43.82234        34.74640         2.48836
H         43.92132        35.62412         2.93028
O         46.06374        51.05071         1.48026
H         46.26374        50.19933         1.94038
O         46.38248        60.87503        -0.98937
H         47.29089        60.78881        -1.35533
O         52.68127        58.22452         1.48271
H         53.55818        57.74563         1.66651
O         48.13816        39.72008         2.81289
H         47.73172        40.41411         3.37949
O         38.94382        50.57709        -2.63868
H         38.11660        50.98702        -2.97230
O         44.96487        40.11216         3.04389
H         45.64696        40.71832         3.40991
O         55.04846        54.39388         1.38285
H         55.06003        55.38929         1.59712
H         29.04750        56.51103         0.84858
H         27.94315        58.69501         0.70523
H         30.23002        62.32155         1.21655
H         28.07470        61.12271         1.09803
H         31.93310        52.33171         0.01565
H         30.86890        54.23421         0.77830
H         32.64857        62.31310         1.17941
H         34.27943        48.10445        -0.21077
H         33.07615        50.26594        -0.21090
H         35.20891        62.34892         1.19879
H         36.79809        43.80298         0.06120
H         35.52071        45.94301        -0.10767
H         37.72695        62.37947         1.08974
H         39.25232        39.58672         0.37369
H         38.05966        41.67470         0.20619
H         40.20591        62.31307         1.27835
H         41.73809        35.28970         0.29652
H         40.47881        37.43707         0.32962
H         42.64269        62.34087         1.34225
H         44.78926        32.24891        -0.90788
H         42.90545        33.07885         0.44796
H         45.15128        62.39634         1.18383
H         46.91071        33.53536        -1.09832
H         48.26124        35.54352        -0.58983
H         47.72550        62.33648         1.37469
H         49.57376        37.56664        -0.32430
H         50.93318        39.56469         0.00856
H         50.24442        62.30614         1.36234
H         52.28448        41.62904         0.25792
H         53.57571        43.74414         0.27420
H         52.69152        60.77421         2.16990
H         54.84802        45.89170         0.20568
H         56.07246        48.00041         0.28988
H         55.00365        62.26420         1.47136
H         57.36242        50.22980         0.10525
H         58.56226        52.31670        -0.18663
H         57.71868        62.14622         1.63836
H         59.82111        54.42524        -0.29024
H         61.07797        56.61952        -0.09014
H         60.07901        62.23781         1.35164
H         62.23460        58.62564         0.40608
H         62.22031        61.00454         1.15015
