         287
 CSIRO Nanostructure Databank - Neutral Graphene Oxide Data Set
C        -11.11905         0.74192        -0.19636
C         -9.78552         1.39935        -0.45683
C         -8.66728         0.78570         0.35880
C         -7.34011         1.45964         0.21182
C         -6.15994         0.73721         0.47862
C         -4.89585         1.36961         0.42863
C         -3.67067         0.63557         0.84843
C         -2.34803         1.37585         0.92244
C         -1.10715         0.50014         0.80735
C          0.09401         1.15962         0.90139
C          1.38262         0.42905         1.02352
C          2.67153         1.21500         1.03224
C          3.94103         0.53701         0.54047
C          5.09035         1.39681         0.11885
C          6.29191         0.81868        -0.59456
C          7.59024         1.60718        -0.40143
C          8.68649         0.80226         0.31713
C         10.00739         1.49063         0.28591
C         11.19392         0.64797         0.13012
C         -9.75029         2.89877        -0.37838
C         -8.55233         3.59343        -0.29024
C         -7.28098         2.82795        -0.14742
C         -5.99550         3.36830        -0.43589
C         -4.81208         2.66111        -0.12144
C         -3.47685         3.25138        -0.57995
C         -2.22946         2.59392         0.02063
C         -1.01281         3.38881         0.37320
C          0.09975         2.65219         1.10274
C          1.36514         3.41386         1.38741
C          2.75188         2.74918         1.32613
C          3.67931         3.54649         0.41612
C          4.97245         2.90697        -0.11803
C          6.20251         3.58404         0.51553
C          7.51275         2.81713         0.57083
C          8.76635         3.72397         0.35784
C         10.02279         2.85391         0.40083
C         -8.61448         5.02447        -0.37852
C         -7.53964         5.90548        -0.02276
C         -5.83324         4.59865        -1.26595
C         -4.55722         5.46831        -1.13368
C         -3.51068         4.76499        -0.23334
C         -2.17735         5.50387        -0.18090
C         -1.04917         4.87457         0.25970
C          0.11102         5.64418         0.79590
C          1.31191         4.94809         1.35652
C          2.63781         5.71567         1.49616
C          3.68335         5.03227         0.59029
C          4.95073         5.79099         0.24647
C          6.21963         5.06932         0.60316
C          7.48855         5.81640         0.83266
C          8.69564         4.97866         1.28946
C         -7.28279         7.01941        -0.83365
C         -5.95680         7.69059        -1.20406
C         -4.69053         6.95418        -0.68702
C         -3.37493         7.67863        -1.03763
C         -2.14958         6.96003        -0.54685
C         -1.00970         7.79243        -0.05744
C          0.16447         7.12432         0.55198
C          1.48032         7.80785         0.54935
C          2.58193         7.18215         1.04441
C          3.91816         7.90528         1.17486
C          4.99245         7.28136         0.27010
C          6.35773         7.98252         0.17141
C          7.49957         7.16330         0.76116
C         -5.87613         9.12093        -0.68571
C         -4.71019         9.78066        -0.62890
C         -3.42135         9.21162        -1.19907
C         -2.18720         9.94821        -0.61650
C         -0.88508         9.17560        -0.58773
C          0.33692         9.77273        -0.59730
C          1.54257         9.16321        -0.03218
C          2.70706         9.87554         0.04801
C          3.76433         9.46542         1.03813
C          5.13913        10.08168         0.87647
C          6.27822         9.41057         0.66335
C        -11.24189        -0.54720         0.15570
C        -10.10158        -1.44984         0.58630
C         -8.78708        -0.66949         0.68376
C         -7.53705        -1.47570         0.51699
C         -6.22985        -0.75024         0.47777
C         -4.99354        -1.55473         0.73113
C         -3.67457        -0.85962         0.84882
C         -2.42464        -1.60465         0.55695
C         -1.20294        -0.94225         0.63729
C          0.04160        -1.73614         0.52069
C          1.43000        -1.10799         0.79232
C          2.52914        -1.52672        -0.19187
C          3.93385        -0.97297         0.13874
C          4.98610        -1.38333        -0.92117
C          6.30447        -0.62196        -1.00328
C          7.55471        -1.42800        -1.30689
C          8.95377        -0.82153        -1.44756
C         10.06659        -1.47424        -0.68567
C         11.21620        -0.65268        -0.27699
C         -9.95104        -2.73523        -0.27547
C         -8.83226        -3.65042         0.21236
C         -7.57681        -2.98932         0.76031
C         -6.35150        -3.65085         0.05967
C         -5.03884        -3.01702         0.49289
C         -3.78223        -3.71016         0.14474
C         -2.52946        -2.98449         0.10132
C         -1.42731        -3.61787        -0.47651
C         -0.07660        -3.08327        -0.17716
C          1.11006        -3.69283        -0.91233
C          2.40266        -2.84344        -0.90850
C          3.60976        -3.57420        -1.56660
C          4.95054        -2.82167        -1.36546
C          6.17636        -3.62092        -0.88982
C          7.51516        -2.90621        -1.11091
C          8.74967        -3.64588        -0.56707
C         10.02033        -2.82184        -0.50635
C         -8.87209        -4.99903         0.10577
C         -7.63050        -5.90137         0.05613
C         -6.34929        -5.11504         0.41788
C         -5.05558        -5.84331         0.36596
C         -3.79947        -5.10839         0.06958
C         -2.60236        -5.82694        -0.18235
C         -1.58672        -5.03339        -0.93546
C          0.29363        -5.86556         0.36869
C          1.46582        -5.07284        -0.21750
C          2.42364        -5.90626        -1.06171
C          3.66043        -5.13149        -1.41293
C          4.98610        -5.86367        -1.36078
C          6.26284        -5.08877        -1.31250
C          7.53751        -5.77550        -0.90415
C          8.83083        -5.04139        -1.24737
C         -7.49629        -7.15132         0.88778
C         -6.40186        -8.09997         0.47502
C         -5.05498        -7.33333         0.21971
C         -3.72535        -7.97759         0.42458
C         -2.47132        -7.19061         0.24010
C         -1.26681        -7.89591         0.35480
C         -0.01930        -7.24517        -0.12177
C          1.19326        -8.08079        -0.44430
C          2.49313        -7.45335        -0.95023
C          3.74501        -7.86226        -0.23184
C          5.05475        -7.32026        -0.83410
C          6.18059        -7.51616         0.22984
C          7.49977        -6.95627        -0.26140
C         -6.14696        -9.34135         1.31217
C         -4.94082        -9.91229         1.48811
C         -3.61906        -9.19376         1.31422
C         -2.37928        -9.99461         0.99284
C         -1.22565        -9.32366         0.63630
C          0.07207       -10.01236         0.58268
C          1.22266        -9.44978         0.11587
C          2.57862       -10.14985         0.13333
C          3.76845        -9.21335         0.39242
C          5.12937        -9.76928         0.63902
C          6.22865        -8.99490         0.58177
O          4.71975         6.56288        -0.98043
O         -4.00925         4.78943         1.12863
H         -3.29707         4.49286         1.73601
O         -4.72660         7.07258         0.76004
H         -4.76790         8.02956         0.98318
O         -9.41278         1.06799        -1.83753
H        -10.12709         1.38006        -2.43177
O         -0.86200         7.79316         1.40622
O          0.70884        -3.81331        -2.26188
H          1.50478        -4.03106        -2.81247
O          0.01663        -2.98988         1.27840
O         -5.09756        -2.49479         1.86727
O         -7.51261        -6.17544        -1.36172
H         -7.36621        -7.15261        -1.48400
O         -8.88009         0.33932         1.74141
O          5.76190        -5.58559        -2.58661
O         -9.65140        -2.37800        -1.62910
H         -8.72781        -2.04665        -1.68397
O          3.35238         2.86132         2.61835
H          2.75460         2.42238         3.26237
O          0.27595         5.41289         2.24651
O          2.11715         0.66413         2.27204
O          3.53221        -7.99032         1.20500
O          5.90651         4.21276         1.78624
O          7.52264        -2.36885        -2.46073
O         -6.80282        -8.64842        -0.82220
H         -5.96750        -8.91619        -1.27931
O         -0.18967        -5.51621         1.43794
O          0.49304         2.96064         2.46711
O          9.00521        -4.90845        -2.65004
H          8.27228        -4.37226        -3.02225
O          0.21353        -7.72304        -1.48234
O          4.84599        -1.73537        -2.33360
O          7.63492         2.26783         1.90080
H          6.78665         1.83958         2.15560
O         -6.78758         5.48116         1.00833
H         -5.98658         6.04938         1.16415
O         -1.02295        -5.52471        -1.91135
O          5.02885         3.09718        -1.53599
H          4.39967         3.82427        -1.76321
O          5.02833         0.90025         1.47704
O         -2.42880         7.11641        -1.97914
O          6.07143         0.47791        -1.97780
O         -1.13438         2.64892        -0.93158
O          9.18884         0.01298        -2.30250
O          3.02970         4.39077        -0.57453
O          2.15756        -1.54170        -1.58005
O          8.44597        -0.23367         0.93085
O         -6.58113         4.81129        -2.21262
O          8.02610         2.04096        -1.69021
H          7.51590         1.52435        -2.36481
O         -6.91426        -1.16383        -0.77318
O        -10.41726        -1.91256         1.91494
H        -10.22829        -1.17500         2.53533
O          3.03009         5.61428         2.85485
H          3.69784         6.34046         3.03426
O         -5.69224        -5.46188         1.65642
O         -3.44961         9.47782        -2.61463
H         -4.19687         8.95928        -2.99551
O         -4.39188        -7.97823        -0.89841
O         -3.41710         3.03306        -2.00589
H         -2.46140         2.93841        -2.23936
O          3.32382        -3.45204        -2.98504
H          3.40767        -2.49719        -3.21592
O         -2.33245         1.98397         2.24525
H         -2.60730         1.28740         2.88608
O         -3.76112        -0.10696         2.11770
O          2.64869        -8.01463        -2.27151
H          1.89859        -7.69025        -2.81907
O          4.40917         7.72479         2.47974
O          8.59722         4.66260         2.66507
H          7.75399         4.17215         2.80561
O          2.69266        -5.59523        -2.43280
O         -7.57350        -3.27121         2.16295
H         -6.67233        -3.07478         2.51905
O          8.49186        -3.93881         0.83762
H          8.55205        -3.10056         1.34595
O          5.89524        -3.71006         0.52670
H          6.59439        -4.26222         0.95420
O          5.35734        -8.17422        -1.94925
H          5.63425        -7.59847        -2.69827
O         -4.12318         5.52233        -2.50365
H         -3.95870         4.59339        -2.79852
O         -6.45348        -3.56246        -1.36885
H         -6.98587        -4.32403        -1.70104
O         -2.47930        10.23908         0.76878
H         -1.83968         9.75986         1.34102
O          6.69886         8.12661        -1.23458
H          6.24169         7.39705        -1.71559
O          5.87207        -6.73900         1.40902
H          5.04342        -7.11005         1.80040
O          2.79333       -10.72537        -1.16464
H          2.83878        -9.98394        -1.81672
O         -5.88583         7.73572        -2.64134
H         -5.76550         6.80912        -2.96119
O          3.25458         9.91595         2.30589
H          3.66079         9.28984         2.96447
O          4.41547        -1.67981         1.29190
H          3.73981        -1.60207         2.00732
O          2.24852        -4.69713         0.94204
H          1.61144        -4.36103         1.61990
O         -3.36423        -8.59372         2.63388
H         -3.18194        -9.31851         3.26808
O          8.74919         4.35465        -0.93776
H          8.71895         3.64873        -1.62886
O          1.87513        -1.69304         2.03681
H          1.24581        -1.44447         2.74644
H         12.19029        -1.16906        -0.26164
H         12.15958         1.11874         0.37604
H         10.99099         3.38229         0.38322
H          9.62825         5.57962         1.14212
H          8.43631         7.70513         0.96805
H          7.23126         9.96340         0.66212
H          5.19397        11.15436         1.12495
H          2.77348        10.87043        -0.41985
H          0.41884        10.82515        -0.91222
H         -2.06242        10.91617        -1.16805
H         -4.68788        10.81747        -0.26035
H         -6.80358         9.60431        -0.34240
H         -8.05664         7.19784        -1.59873
H         -9.48790         5.45551        -0.89179
H        -10.69097         3.46369        -0.47898
H        -12.02294         1.32812        -0.43039
H        -12.25040        -0.97841         0.25769
H        -10.92412        -3.28446        -0.28039
H         -9.79145        -5.47124        -0.27907
H         -7.76680        -7.08419         1.95398
H         -7.04420        -9.91737         1.58942
H         -4.89455       -10.89066         1.99522
H         -2.35311       -11.07521         1.20097
H          0.10613       -11.03536         0.99022
H          2.56622       -10.98787         0.87491
H          5.21246       -10.83840         0.88740
H          7.21243        -9.43850         0.80239
H          8.43485        -7.45915         0.03365
H          9.70478        -5.60882        -0.84341
H         10.87501        -3.32986        -0.02831
