         236
 CSIRO Nanostructure Databank - Neutral Graphene Oxide Data Set
C        -11.15947         0.61956         0.00772
C         -9.95349         1.39149        -0.21339
C         -8.77794         0.62224        -0.77303
C         -7.47497         1.44819        -0.88794
C         -6.17769         0.66425        -0.75936
C         -5.00059         1.36225        -0.77281
C         -3.71151         0.64956        -0.63663
C         -2.49127         1.42324        -1.10549
C         -1.17319         0.66684        -1.04963
C          0.01648         1.36686        -1.13914
C          1.31603         0.69918        -1.15282
C          2.50653         1.41180        -1.14624
C          3.80019         0.70818        -1.08963
C          4.96613         1.52162        -0.61476
C          6.02872         0.86302         0.20075
C          7.40376         1.46642         0.11178
C          8.51454         0.85833         0.90833
C          9.83461         1.58499         0.93483
C         11.03112         0.72863         1.00061
C         -9.93432         2.73381         0.05240
C         -8.70025         3.46795         0.22531
C         -7.41585         2.64318         0.16374
C         -6.23944         3.52651        -0.28942
C         -4.95030         2.88569        -0.86132
C         -3.72571         3.37347        -0.07525
C         -2.42423         2.68687        -0.24599
C         -1.07574         3.40221        -0.17061
C         -0.06206         2.89178        -1.18963
C          1.27874         3.64253        -1.18217
C          2.57054         2.88528        -1.28027
C          3.86510         3.62699        -1.18593
C          5.16501         2.84589        -1.34685
C          6.35667         3.61066        -0.79363
C          7.56714         2.87215        -0.39682
C          8.78397         3.64858        -0.01560
C          9.89462         2.98948         0.45733
C         -8.66795         4.73519         0.73344
C         -7.36704         5.27565         1.29468
C         -6.22543         4.83832         0.39996
C         -4.91528         5.43973         0.70993
C         -3.83455         4.48609         0.70659
C         -1.96249         5.47405         0.85735
C         -0.97657         4.84410         0.14777
C          0.22288         5.62086        -0.11576
C          1.33259         5.03936        -0.67382
C          2.68838         5.68740        -0.45123
C          3.86944         4.99347        -1.14310
C          5.16031         5.68702        -1.16029
C          6.36604         4.98291        -0.78373
C          7.57541         5.76006        -0.49676
C          8.74273         5.08220        -0.16470
C         -7.26093         6.78010         1.50630
C         -6.07311         7.46540         1.39040
C         -4.82358         6.75987         1.08667
C         -3.56178         7.54984         0.91792
C         -2.20676         6.91945         0.71172
C         -0.98150         7.71697         0.76388
C          0.25875         6.98229         0.52242
C          1.51055         7.82635         0.34470
C          2.55554         7.20991        -0.48889
C          3.39144         8.08820        -1.10987
C          5.28272         7.02379        -1.45018
C          6.36138         7.85484        -0.99192
C          7.50282         7.20346        -0.53822
C         -5.96459         8.88992         1.67978
C         -4.78731         9.58080         1.66313
C         -3.51886         8.98118         1.29582
C         -2.33055         9.68923         1.25963
C         -1.03503         9.09498         0.95467
C          0.17014         9.87332         0.78203
C          1.37444         9.30401         0.38140
C          2.56036        10.05738         0.03734
C          3.60137         9.44336        -0.64566
C          4.95319         9.98685        -0.78281
C          6.13656         9.30151        -0.90700
C        -11.08931        -0.71442         0.24927
C         -9.81822        -1.42273         0.28935
C         -8.61793        -0.75343        -0.18076
C         -7.43971        -1.45066        -0.36567
C         -6.18406        -0.79515        -0.71150
C         -5.00940        -1.53562        -0.85997
C         -3.70205        -0.85906        -0.73199
C         -2.40981        -1.49911        -1.08608
C         -1.23024        -0.78312        -1.13807
C          0.07134        -1.48243        -1.31724
C          1.34661        -0.75425        -1.08988
C          2.52559        -1.46945        -0.89788
C          3.84282        -0.79238        -0.97467
C          5.15930        -1.45637        -0.50623
C          5.84719        -0.61345         0.63071
C          7.17553        -1.28892         1.04513
C          8.48593        -0.61312         0.99538
C          9.66512        -1.33523         1.11926
C         10.93525        -0.62123         1.10926
C         -9.77751        -2.71763         0.75117
C         -8.52913        -3.48133         0.79538
C         -7.33765        -2.85499         0.09919
C         -6.32616        -3.73545        -0.56797
C         -5.05194        -3.00472        -1.09245
C         -3.72851        -3.69924        -1.20621
C         -2.44182        -2.94989        -1.51136
C         -1.20911        -3.73365        -1.08260
C          0.07474        -2.98804        -1.20122
C          1.28417        -3.61141        -0.65277
C          2.49223        -2.87357        -0.54994
C          3.66625        -3.54073        -0.10131
C          4.96290        -2.88240        -0.00341
C          5.98852        -3.51727         0.63429
C          7.20867        -2.78548         1.04216
C          8.49442        -3.51109         1.02082
C          9.66083        -2.78233         1.11841
C         -8.64444        -4.98471         0.98046
C         -7.35509        -5.72784         0.70664
C         -6.37387        -5.17458        -0.16575
C         -5.42411        -6.07122        -0.65505
C         -3.62926        -5.03778        -1.40623
C         -2.41634        -5.90491        -1.27486
C         -1.21602        -5.07614        -0.86806
C          0.06910        -5.83119        -0.59571
C          1.14878        -4.88280        -0.06708
C          2.24990        -5.31102         0.68805
C          3.53837        -4.81534         0.49295
C          4.77118        -5.71069         0.56798
C          5.92202        -4.92024         1.20769
C          7.24400        -5.65364         1.00185
C          8.43027        -4.95370         0.93525
C         -7.25547        -7.06827         1.09244
C         -6.12800        -7.86746         0.77259
C         -5.11922        -7.31566        -0.06731
C         -3.82999        -7.95432        -0.23811
C         -2.60097        -7.24695        -0.50737
C         -1.39684        -7.90862        -0.21877
C         -0.18880        -7.12748         0.26366
C          1.05514        -8.00257         0.31997
C          2.22097        -7.50580         0.89121
C          3.50986        -7.99678         0.67679
C          4.70124        -7.16944         1.16262
C          6.02501        -7.81811         0.78748
C          7.19188        -7.08372         0.81722
C         -6.00067        -9.23993         1.17100
C         -4.89912        -9.95867         0.79535
C         -3.75994        -9.32575         0.18148
C         -2.56335       -10.04409         0.01793
C         -1.34900        -9.34601        -0.15577
C         -0.11012       -10.03166        -0.29924
C          1.12644        -9.34576        -0.15619
C          2.40791        -9.96852        -0.24286
C          3.59700        -9.29030         0.09892
C          4.91693        -9.88229        -0.01875
C          6.04008        -9.18971         0.33374
O          7.00266        -2.03696         2.31664
O          5.66450        -4.76985         2.62041
H          6.29998        -4.11053         2.97481
O         -2.82641         4.74550         1.66033
O          2.10523        -6.32379         1.64432
O          5.10552        -5.93574        -0.82434
H          5.19872        -5.06797        -1.27243
O          5.02628         1.71926         0.82821
O          0.18393        -2.34377        -2.52207
O         -1.50864         2.51134         0.88521
O          6.07530        -1.51273        -1.61129
H          5.69981        -0.94299        -2.32911
O          4.23858         7.65389        -2.13342
O         -6.13975        -3.44312        -1.97559
O         -3.56100        -0.13105         0.56810
O          4.05374        -0.13088        -2.27189
O          1.88434         3.41754        -2.50858
O         -4.83818         3.28370        -2.23587
H         -5.39366         4.09025        -2.34657
O          7.84030         1.70043        -1.26559
O         -6.60275         4.73351        -1.02874
O         -7.18831         4.62614         2.58433
H         -7.19138         3.63800         2.40201
O          1.23454         7.14881         1.62343
O         -9.65584        -5.50894         0.10079
H         -9.35013        -5.40521        -0.82405
O          4.62607        -7.13216         2.59573
H          3.85489        -6.57827         2.84596
O         -7.45130         2.07553        -2.17970
H         -8.34009         2.44956        -2.36093
O          4.94338        -0.64006         1.73836
H          5.40207        -1.08655         2.48855
O         -7.40179        -2.94445         1.56589
O         -3.04509         7.29324        -0.45657
O         -0.64264         3.27627        -2.47745
H          0.09523         3.23768        -3.13244
O          8.93997         1.51484         2.13880
O         -4.74930        -5.75846        -1.83177
O         -9.25752         0.35854        -2.19118
O          3.04426         5.37609         0.93647
H          2.42327         5.87470         1.52897
O         -7.13737         2.16242         1.43056
O         -2.41585        -2.91682        -2.97509
H         -1.51132        -2.60672        -3.23476
O         -2.09785        -6.37862        -2.63379
H         -2.94381        -6.42633        -3.13190
O          0.58811        -6.28104        -1.87168
H         -0.17093        -6.36346        -2.49644
O         -0.55916        -6.70512         1.59903
H          0.26756        -6.43803         2.06581
O         -2.76638         1.70468        -2.48739
H         -2.10976         2.37536        -2.80340
O          5.39751         2.54955        -2.74036
H          5.40670         3.39221        -3.23906
O         -8.22925        -0.37597        -2.88091
H         -7.57733         0.33741        -3.11824
H         11.85357        -1.22636         1.14664
H         12.01943         1.20349         0.90748
H         10.81100         3.56133         0.67346
H          9.66151         5.65189         0.04195
H          8.35761         7.78293        -0.15787
H          7.05317         9.91062        -0.83353
H          5.04008        11.07455        -0.62231
H          2.64582        11.10389         0.36709
H          0.09553        10.96950         0.84818
H         -2.35237        10.76336         1.50192
H         -4.78988        10.65118         1.92012
H         -6.88947         9.42203         1.95018
H         -8.16103         7.32502         1.83398
H         -9.60632         5.28768         0.90438
H        -10.87297         3.22409         0.35940
H        -12.11799         1.15308         0.09558
H        -11.99881        -1.28181         0.49580
H        -10.71322        -3.24304         0.99291
H         -8.99361        -5.19482         2.02302
H         -8.06905        -7.51272         1.68358
H         -6.81149        -9.71177         1.74362
H         -4.81297       -11.02108         1.06653
H         -2.54980       -11.13372         0.16792
H         -0.11686       -11.12320        -0.43839
H          2.46784       -11.00659        -0.60208
H          5.00126       -10.90815        -0.40556
H          7.02469        -9.66460         0.19918
H          8.13962        -7.59256         0.57358
H          9.37666        -5.50729         0.82749
H         10.62940        -3.30379         1.14887
