         280
 CSIRO Nanostructure Databank - Neutral Graphene Oxide Data Set
C         30.24628        31.72211        -1.18867
C         30.29217        32.82396        -1.73581
C         30.20308        35.97253        -1.60746
C         30.22743        37.02771        -0.97127
C         30.21683        39.85488         0.16141
C         30.13225        41.08457         0.26163
C         32.57489        29.40400         0.58031
C         31.53291        29.80849         0.05472
C         32.70868        31.57197        -1.22240
C         31.36983        30.80227        -1.00198
C         32.74082        32.96378        -1.87567
C         31.39490        33.70294        -2.11780
C         32.64124        36.02170        -1.96147
C         31.33175        35.19393        -2.11211
C         32.58523        37.45719        -1.34778
C         31.44479        37.54113        -0.25723
C         32.57918        39.71973         0.71786
C         31.32624        38.91966         0.36034
C         32.46397        41.16117         1.14666
C         31.07394        41.94437         0.97228
C         32.37900        43.93179         1.35757
C         31.34157        43.37825         0.97702
C         35.18492        28.50760         2.22473
C         35.02174        29.77256         1.50605
C         33.83838        30.14545         0.69430
C         35.23842        31.92982        -0.55504
C         33.98048        31.09812        -0.50754
C         35.21912        33.28455        -1.12304
C         34.02104        33.78370        -1.85148
C         35.23497        36.13518        -1.86336
C         33.95969        35.29597        -2.03563
C         35.19425        37.55100        -1.36405
C         33.91323        37.94899        -0.67907
C         35.09154        40.11085         0.16978
C         33.90529        39.16492         0.21794
C         35.04279        41.40507         0.93195
C         33.72890        41.89797         1.49946
C         34.97199        44.18852         1.79492
C         33.69012        43.41554         1.73814
C         35.18781        45.51198         1.20205
C         37.50699        27.98921         1.66910
C         36.19872        27.81594         2.29655
C         37.72657        29.54034         1.43010
C         36.42030        30.34737         1.16127
C         37.78647        32.04678        -0.26093
C         36.45456        31.54935         0.26871
C         37.81628        33.34068        -0.99857
C         36.50612        33.93787        -1.45869
C         37.87151        36.15439        -1.82946
C         36.54159        35.39261        -1.87692
C         37.83587        37.63274        -1.40495
C         36.50503        38.29575        -1.09313
C         37.71602        40.17993         0.29049
C         36.45183        39.59666        -0.29093
C         37.65572        41.27920         1.35794
C         36.32679        41.97546         1.54355
C         37.61621        44.23958         1.75668
C         36.32124        43.45236         1.89228
C         37.60362        45.70065         1.23924
C         36.23768        46.05365         0.84383
C         39.89401        25.24965         2.79223
C         38.86658        25.86005         2.49124
C         40.05302        27.77167         1.52764
C         38.69223        27.09281         1.71022
C         40.07691        28.90450         0.51626
C         38.83872        29.75488         0.36418
C         40.26863        31.60583        -0.87679
C         38.93826        31.08851        -0.38496
C         40.36477        33.05008        -1.39429
C         39.03539        33.75331        -1.82175
C         40.47666        36.05032        -1.51356
C         39.15032        35.33071        -1.82903
C         40.42092        37.49647        -1.04946
C         39.14299        38.39085        -1.00036
C         40.22058        39.99024         0.71629
C         38.97608        39.34279         0.20996
C         40.23430        41.46559         1.07289
C         39.00569        41.96131         1.84835
C         40.23628        44.35429         1.83446
C         38.95773        43.52547         1.90501
C         40.15845        45.81252         1.37023
C         38.85095        46.29711         0.78529
C         39.96801        48.37408         0.05666
C         39.02196        47.53518         0.17419
C         42.44714        24.93521         2.47135
C         41.29217        25.58042         3.08647
C         42.69465        27.63708         1.56721
C         41.31505        27.14039         2.02341
C         42.67290        28.67141         0.41954
C         41.42282        29.42621         0.03970
C         42.85879        31.47987        -0.65203
C         41.49639        30.96074        -0.17705
C         42.96802        32.94314        -0.99151
C         41.70164        33.75091        -1.34735
C         42.87784        35.82592        -0.50477
C         41.85586        35.27248        -1.50741
C         42.78404        37.22737        -0.01425
C         41.71661        38.18561        -0.57847
C         42.79836        40.07915         0.63332
C         41.53165        39.33994         0.41289
C         42.89990        41.51561         1.09781
C         41.53036        42.23591         1.15615
C         42.83772        44.43329         1.30277
C         41.61620        43.60516         1.86090
C         42.77057        45.94651         1.22915
C         41.41067        46.59207         1.02216
C         42.58276        48.54806         0.14478
C         41.33112        47.75783        -0.10667
C         43.46490        25.31452         1.89319
C         45.14732        27.11988         0.86262
C         43.80215        26.57234         1.22007
C         45.31506        28.67135         0.84225
C         44.04366        29.30226         0.21492
C         45.30480        31.47740         0.30705
C         44.10012        30.72463        -0.23100
C         45.45862        32.91427        -0.19210
C         44.27977        33.67647        -0.72549
C         45.45162        35.86814         0.09013
C         44.25442        35.18059        -0.52868
C         45.35367        37.26537         0.64394
C         44.03099        37.92982         0.51017
C         45.29727        40.14046        -0.05669
C         44.04366        39.38650         0.16617
C         45.19809        41.63069        -0.17815
C         43.92281        42.30080         0.27122
C         44.99058        44.53899        -0.23664
C         43.96737        43.76577         0.56021
C         45.15795        45.99005         0.17895
C         44.05033        46.71219         0.90838
C         43.68128        48.02711         0.36338
C         47.59489        27.14421         0.86879
C         46.50515        26.56803         0.97563
C         47.88303        28.42471         0.18521
C         46.56985        29.18862         0.08586
C         47.89076        31.42777        -0.06290
C         46.58603        30.69890        -0.04321
C         47.94241        32.85312         0.44189
C         46.65144        33.60718         0.43036
C         47.95275        35.83195         0.82373
C         46.65390        35.10255         0.58092
C         47.95599        37.36372         0.72335
C         46.64201        38.08487         0.70176
C         47.84022        40.38586         0.03981
C         46.60955        39.57400         0.35484
C         47.70189        41.80490        -0.51438
C         46.45418        42.38937        -0.45249
C         48.57290        45.28344        -1.00396
C         46.14738        43.77491        -0.88394
C         47.68657        45.98930        -0.15171
C         46.56052        46.41495         0.13294
C         50.46416        28.68114        -0.37551
C         49.19097        29.16646         0.18121
C         50.29250        31.47749        -0.64465
C         49.18660        30.67605         0.02048
C         50.34401        32.95287        -0.36051
C         49.32270        33.50388         0.65115
C         50.52523        35.89247         0.50051
C         49.28026        35.08457         0.76801
C         50.48395        37.42895         0.44437
C         49.15749        38.09273         0.16587
C         50.37550        40.36282        -0.34179
C         49.10625        39.57128        -0.14227
C         50.12709        41.56146        -1.28941
C         49.04088        42.54603        -0.67801
C         50.80728        44.35854        -0.93512
C         49.35258        44.07343        -0.66950
C         51.48859        29.28354        -0.71207
C         52.74135        31.57381        -0.88617
C         51.72833        30.58956        -1.34174
C         52.74031        32.80488        -0.79037
C         51.63721        33.74971        -0.56705
C         52.89025        36.05596         0.02201
C         51.71196        35.18326        -0.17710
C         52.84396        37.29087        -0.01187
C         51.76451        38.24034         0.28331
C         52.62912        40.05635        -1.34281
C         51.71144        39.63986        -0.25359
C         52.51135        41.26350        -1.74320
C         51.49000        42.19272        -1.76923
C         51.44976        43.58465        -1.71803
O         47.13715        32.97750         1.65979
O         47.26932        40.36098         1.38366
O         36.82823        41.01439         2.52521
O         39.58688        44.06907         3.09627
O         40.73730        46.83386         2.27054
O         39.44575        39.03853         1.53796
O         33.60734        33.00248        -3.03225
O         34.84559        41.38484        -0.51763
O         40.64583        28.15151         2.82894
O         51.45197        34.81332        -1.54683
O         34.13821        37.83016         0.76253
O         37.80040        27.09722         0.58638
O         51.17927        38.04257         1.57689
O         35.12412        37.27238        -2.77280
O         44.06664        44.04645         1.98213
O         46.78577        44.29328        -1.80252
O         43.06946        31.89589        -2.00628
O         43.65576        46.52956         2.26251
O         37.16084        38.46830        -2.37586
O         44.10398        41.99360        -1.11385
O         40.60803        37.14180        -2.45481
O         31.85248        38.89760         1.70078
O         36.54333        34.34951        -2.87078
O         44.34530        29.64997        -1.16512
O         42.32262        36.11582         0.80683
O         48.96511        38.55104        -1.20213
O         42.01649        28.44113        -0.84672
O         38.61050        35.90144        -3.04965
O         38.11007        33.32769         0.42352
O         33.31376        35.84103        -3.22484
O         45.24460        35.86384        -1.35532
O         49.27708        43.32841         0.54329
O         45.33758        33.19636        -1.60302
O         47.07769        35.45477         1.92138
O         40.71502        42.27261        -0.04850
O         39.42260        30.83068        -1.73969
O         44.25443        26.58173        -0.13638
O         39.12702        28.68060        -0.55581
O         49.43327        30.05152         1.31082
O         31.45806        41.34459         2.19659
O         33.66405        42.46196         2.82588
O         42.24290        39.20457         1.67692
O         49.77575        32.43211        -1.59958
O         47.15981        31.19100        -1.28862
O         34.99558        30.73741        -1.47612
O         44.49633        37.48026         1.80172
O         36.45393        31.69657         1.72395
O         31.27493        34.45297        -3.33259
O         37.61234        45.38855         2.64886
O         41.19934        33.17369        -2.58880
O         47.39929        37.92433         1.93482
O         51.27997        40.61525         0.74391
O         44.60875        39.52125        -1.18017
O         50.20041        35.45752         1.83922
O         35.60530        43.95091         3.06236
O         32.16301        30.55799        -2.14917
O         34.10122        30.77591         1.97042
O         44.58893        45.62705        -1.11742
O         47.11511        28.48918        -1.04810
O         37.20616        40.64372        -0.97471
O         41.43378        47.11280        -1.34873
H         41.39852        47.77385        -2.07064
O         41.43481        31.49736         1.18218
H         40.66111        31.12677         1.66113
O         41.51753        25.96212         4.37669
H         40.70817        26.35226         4.76353
O         39.40265        39.36243        -2.02649
H         39.38936        38.90704        -2.89678
O         45.60436        29.11090         2.17004
H         44.82370        28.95111         2.75337
O         49.48067        41.00392        -2.43830
H         49.50439        41.63921        -3.18311
O         42.28037        38.81392        -1.73620
H         42.11751        38.23256        -2.51645
O         38.28561        30.05185         2.65219
H         37.77782        30.85525         2.91510
O         38.76823        33.30397        -3.13685
H         39.58735        33.36374        -3.67403
O         31.78637        36.58844         0.73095
H         31.76599        37.02684         1.61474
O         51.60057        30.54281        -2.70150
H         51.64070        31.44465        -3.08033
O         42.46090        35.48444        -2.78258
H         42.06515        34.85694        -3.42751
O         48.91917        45.86467        -2.15139
H         48.40969        46.68585        -2.30536
O         49.80023        33.01736         1.90737
H         49.17624        33.29967         2.61082
O         32.30218        38.39253        -2.38204
H         32.72275        38.07282        -3.21210
O         39.24185        41.48949         3.16919
H         38.40850        41.55759         3.68604
O         41.90857        43.32447         3.22105
H         41.93065        44.15997         3.73165
O         43.19265        28.33970         2.72744
H         42.41715        28.67304         3.23793
O         43.46583        41.46690         2.41064
H         42.92028        40.87139         2.97000
O         45.01979        31.54631         1.71509
H         45.81095        31.89662         2.19197
