         661
 CSIRO Nanostructure Databank - Neutral Graphene Oxide Data Set
C          5.80590        31.77097         0.75692
C          5.82617        33.13359         0.79344
C          8.27426        27.47521         0.69326
C          8.24215        28.85539         0.53801
C          7.01770        29.61543         0.61956
C          8.26278        31.74050         0.47548
C          7.02046        31.00207         0.60322
C          8.28449        33.12636         0.54166
C          7.06329        33.87579         0.68906
C          8.30222        36.01303         0.48829
C          7.08648        35.26597         0.70110
C          8.29646        37.42229         0.41295
C         10.82777        23.10396         0.54099
C         10.75092        24.52204         0.62214
C          9.55732        25.22590         0.59889
C         10.73603        27.36979         0.23130
C          9.55728        26.70552         0.91054
C         10.67710        28.83446        -0.01622
C          9.45727        29.60997         0.28051
C         10.69075        31.74444        -0.11936
C          9.48884        30.99888         0.23855
C         10.73706        33.12630        -0.05119
C          9.60606        33.84935         0.64559
C         10.71588        36.02215         0.03256
C          9.52708        35.31759         0.32232
C         10.70040        37.43217        -0.02345
C          9.48933        38.14532         0.19377
C         10.64938        40.32600        -0.07760
C          9.51181        39.58702         0.24023
C         10.71918        41.72159         0.09592
C         13.32011        18.82008         0.73227
C         13.27855        20.22087         0.80969
C         12.07908        20.95348         0.76175
C         13.27260        23.10023         0.79231
C         12.05068        22.38411         0.72980
C         13.23831        24.49846         0.24780
C         12.05843        25.26996         0.86362
C         13.22492        27.34909         0.06218
C         12.05289        26.69645         0.34106
C         13.24705        28.83813        -0.00416
C         11.95939        29.58796         0.02305
C         13.17850        31.76316        -0.24669
C         11.90993        30.96962        -0.58968
C         13.12553        33.13460        -0.96265
C         11.91467        33.89451        -0.40745
C         13.11738        36.04988        -0.67470
C         11.93524        35.27752        -0.28709
C         13.10796        37.43260        -0.76286
C         11.99073        38.21205        -0.11114
C         13.11914        40.37168        -0.64984
C         11.81002        39.60768        -0.73377
C         13.16541        41.71559        -0.36595
C         11.92916        42.44223        -0.07215
C         13.20294        44.55110        -0.00193
C         11.97223        43.83269         0.05097
C         13.22186        45.94212         0.14922
C         15.88900        14.59010         1.21525
C         15.92878        16.08871         1.30583
C         14.60455        16.74399         1.03672
C         15.81423        18.83518         0.62205
C         14.55668        18.10345         0.82326
C         15.83489        20.26895         0.77642
C         14.54916        20.92198         1.11883
C         15.82113        23.20184         1.12052
C         14.51475        22.45542         1.18130
C         15.81317        24.61401         0.63697
C         14.52976        25.28345         0.32702
C         15.74488        27.34158        -0.28802
C         14.49882        26.62832         0.08892
C         15.71324        28.83885        -0.54090
C         14.46288        29.58872        -0.37390
C         15.70580        31.68905        -0.51903
C         14.46811        30.97923        -0.45391
C         15.70960        33.17252        -0.59959
C         14.40854        33.91525        -0.75631
C         15.35313        36.08341        -1.63524
C         14.28920        35.35290        -1.12735
C         15.58923        37.46184        -1.39316
C         14.30583        38.17298        -1.22261
C         15.66046        40.31907        -0.96978
C         14.33751        39.67622        -1.09547
C         15.64008        41.69278        -0.67052
C         14.43454        42.41900        -0.39562
C         15.66970        44.54945        -0.02283
C         14.44752        43.82376        -0.15350
C         15.69174        45.92335         0.20344
C         14.44589        46.67341         0.26938
C         15.70291        48.76186         0.92222
C         14.45132        48.03816         0.51867
C         15.73793        50.22590         0.54101
C         18.37532        10.40338         1.68611
C         18.27788        11.68608         1.15674
C         17.10536        12.46253         1.31531
C         18.30096        14.59375         0.71739
C         17.04871        13.86254         1.05954
C         18.19133        15.98976         0.23090
C         17.05335        16.72003         0.49807
C         18.11391        18.94488        -0.30858
C         16.97268        18.14375         0.28716
C         18.25360        20.31150         0.33816
C         17.03819        20.97156         0.72395
C         18.33663        23.15100         0.64547
C         17.13425        22.40353         1.21639
C         18.28014        24.56788         0.37546
C         17.08368        25.25487         0.23308
C         18.21505        27.36593        -0.35411
C         17.05748        26.66384        -0.10782
C         18.20907        28.83533        -0.22293
C         16.96254        29.59160        -0.39080
C         18.20468        31.71463        -0.06901
C         16.93816        30.98370        -0.35335
C         18.22508        33.24440        -0.19984
C         17.02652        33.83924        -0.78367
C         18.28569        35.94167        -1.20820
C         17.21165        35.01736        -1.45891
C         18.15548        37.36454        -1.30562
C         16.86789        38.09762        -1.36284
C         18.13678        40.20305        -1.06118
C         16.87995        39.53700        -1.14961
C         18.15350        41.64098        -0.67189
C         16.90528        42.49520        -0.81802
C         18.17197        44.56297        -0.16921
C         16.93845        43.73871         0.10137
C         18.19089        45.91941         0.04056
C         16.94813        46.65344         0.30813
C         18.20832        48.78285         0.54051
C         16.94950        48.01368         0.52571
C         18.19398        50.25677         0.42367
C         16.91465        50.94962         0.45170
C         18.08063        53.14152         0.42383
C         16.90896        52.39439         0.37018
C         18.10907        54.55833         0.60211
C         20.50074         6.74872        -0.92639
C         20.68691         7.83574        -0.11794
C         19.85592         9.05105         0.09970
C         20.74663        10.11775         0.76736
C         19.55681         9.54983         1.55106
C         20.73397        11.55478         0.31963
C         19.44375        12.30792         0.46922
C         20.70403        14.36410        -0.33315
C         19.54235        13.80445         0.47494
C         20.71468        15.89067        -0.38179
C         19.38701        16.62292        -0.37906
C         20.69873        18.82316        -0.26072
C         19.40707        18.13071        -0.46448
C         20.64527        20.32716        -0.41568
C         19.46456        20.99703         0.27393
C         20.86611        23.11922         0.50710
C         19.51173        22.42977         0.43965
C         20.84042        24.60274         0.17258
C         19.54191        25.31382         0.12467
C         20.78603        27.40327        -0.48708
C         19.49673        26.61476        -0.66223
C         20.73308        28.88632        -0.76866
C         19.51059        29.57567        -0.21887
C         20.68546        31.75816        -0.29672
C         19.49273        31.05294        -0.26871
C         20.70971        33.20348        -0.35177
C         19.50188        33.91726        -0.47688
C         20.72487        36.02573        -0.81420
C         19.50096        35.30060        -0.81609
C         20.67626        37.42394        -1.03659
C         19.39553        38.09252        -1.18493
C         20.64539        40.25384        -1.32506
C         19.36240        39.51444        -1.16525
C         20.67274        41.74847        -1.14122
C         19.42884        42.40176        -0.64358
C         20.67140        44.47322        -0.04774
C         19.42055        43.91901        -0.73275
C         20.66932        45.98618        -0.12739
C         19.45340        46.63497        -0.04902
C         20.63618        48.86753        -0.37154
C         19.48213        48.09095         0.21830
C         20.67192        50.31250         0.09198
C         19.39928        50.94063         0.35462
C         20.67010        53.13887         0.51238
C         19.36766        52.39768         0.56732
C         20.46715        54.52506        -0.03903
C         19.32948        55.27786         0.59112
C         20.76435        57.30287         1.05076
C         19.49977        56.60082         1.00893
C         20.75530        58.69726         0.93307
C         22.58377         4.06913        -2.60624
C         21.46595         4.75672        -2.08638
C         22.97617         6.37092        -1.08576
C         21.63256         5.91276        -1.31879
C         23.19902         7.52089        -0.29850
C         22.05101         8.09949         0.37716
C         23.32725        10.26173         0.59679
C         22.11406         9.50892         0.89348
C         23.27326        11.67522         0.51244
C         22.01190        12.35226         0.35214
C         23.22370        14.50302         0.32999
C         22.01142        13.72925         0.14755
C         23.19750        15.93167         0.29038
C         21.97912        16.66620        -0.15997
C         23.13269        18.87254         0.09464
C         21.88431        18.15442        -0.05856
C         23.20049        20.24755        -0.08880
C         21.97218        21.01380        -0.20170
C         23.28195        23.09195        -0.53275
C         22.00796        22.37880        -0.13743
C         23.30791        24.58190        -0.28580
C         21.98653        25.23846        -0.63478
C         23.25523        27.43829        -0.35438
C         21.98643        26.74396        -0.43790
C         23.24735        28.90580        -0.47487
C         21.98067        29.64668        -0.41348
C         23.15668        31.79638        -0.08043
C         21.95510        31.03420        -0.29856
C         23.17403        33.20018        -0.13060
C         21.94889        33.91180        -0.37992
C         23.18570        36.03364        -0.54934
C         21.95312        35.32273        -0.56646
C         23.16623        37.44425        -0.77710
C         21.92973        38.14096        -1.00873
C         23.14542        40.28036        -1.14089
C         21.93633        39.54899        -1.18596
C         23.15822        41.74864        -1.07025
C         21.94788        42.45234        -0.89441
C         23.15420        44.50942        -0.39023
C         21.94479        43.81736        -0.52583
C         23.19823        45.96005         0.06607
C         21.90329        46.72222        -0.09853
C         23.13967        48.88234        -0.21920
C         21.93272        48.11724        -0.16237
C         23.12607        50.27864        -0.20434
C         21.88532        51.01209         0.03115
C         23.18125        53.11162         0.43914
C         21.96508        52.43144         0.32304
C         23.30432        54.49888         0.84819
C         22.21644        55.25878         1.41175
C         23.23596        57.33933         0.71850
C         22.05268        56.63163         1.06235
C         23.19994        58.75861         0.61105
C         21.95290        59.44612         0.74048
C         23.12524        61.56380         0.43319
C         21.93901        60.85829         0.63566
C         23.87301         4.54814        -2.44221
C         25.37621         6.36387        -1.60138
C         24.10341         5.74216        -1.70047
C         25.54182         7.61441        -0.97836
C         24.42821         8.20044        -0.28475
C         25.67921        10.32082        -0.02755
C         24.48926         9.56999         0.17438
C         25.71090        11.69069         0.30572
C         24.50238        12.39988         0.47289
C         25.68624        14.56188         0.82627
C         24.47650        13.84242         0.55185
C         25.54694        15.97144         1.04366
C         24.33614        16.64796         0.67877
C         25.59861        18.88387         0.72704
C         24.29500        18.13663         0.65778
C         25.76121        20.22552         0.06692
C         24.45702        20.99146         0.04762
C         25.81364        23.07547        -0.15998
C         24.49928        22.34335        -0.06089
C         25.70412        24.53851         0.35149
C         24.45877        25.28993        -0.10554
C         25.67688        27.50044         0.14717
C         24.46143        26.76315        -0.13636
C         25.69413        28.89199         0.30455
C         24.50606        29.65625        -0.08775
C         25.63452        31.82767         0.66864
C         24.36324        31.06905         0.34311
C         25.63681        33.27319         0.34633
C         24.41704        33.93228        -0.01147
C         25.65161        36.04924        -0.27865
C         24.41587        35.33351        -0.28348
C         25.64839        37.47865        -0.45733
C         24.39393        38.17786        -0.71980
C         25.58018        40.36585        -0.66832
C         24.35912        39.57406        -0.91683
C         25.66380        41.75758        -1.29431
C         24.37228        42.47454        -0.96427
C         25.65796        44.57325        -0.34431
C         24.37137        43.83638        -0.64461
C         25.61131        46.00243        -0.82728
C         24.27138        46.71764        -0.74732
C         25.56233        48.89199        -1.01614
C         24.47041        48.15217        -0.22135
C         25.54309        50.35472        -0.65686
C         24.37160        51.00853        -0.33535
C         25.70308        53.16386        -0.13485
C         24.34098        52.52293        -0.34149
C         25.80963        54.45543         0.65025
C         24.50600        55.23280         0.60945
C         25.70800        57.39839         0.51149
C         24.48527        56.63916         0.63859
C         25.65560        58.78685         0.39804
C         24.41426        59.49075         0.43024
C         24.35078        60.90076         0.33960
C         26.73572         8.39629        -1.13952
C         27.86547        10.59669        -1.13425
C         26.80385         9.71257        -0.70894
C         27.99317        11.89176        -0.69076
C         27.06274        12.33167         0.48345
C         28.22388        14.38908         0.99985
C         26.97709        13.83612         0.79502
C         28.59197        15.76485         1.23327
C         26.65352        16.82868         1.42802
C         28.13529        18.76791         0.81475
C         26.81018        18.11072         0.99421
C         28.14615        20.23423         1.23857
C         26.92298        20.99631         0.67839
C         28.08685        23.12904         1.07592
C         26.91618        22.34962         0.62790
C         28.21921        24.56204         0.67420
C         27.01556        25.28910         0.13272
C         28.06716        27.39420         0.98461
C         27.02393        26.83080        -0.01260
C         28.10431        28.91684         1.04473
C         26.87265        29.65679         0.66628
C         28.13674        31.79735         1.03586
C         26.89568        31.04103         0.72484
C         28.10428        33.30235         0.83220
C         26.85686        33.96936         0.33416
C         28.10628        36.08687         0.05682
C         26.86932        35.35311        -0.01384
C         28.10645        37.49996        -0.14944
C         26.86273        38.18126        -0.35788
C         28.13474        40.40713        -0.44026
C         26.84867        39.65369        -0.35837
C         28.16418        41.82378        -0.86076
C         26.92680        42.51462        -0.90915
C         28.15667        44.62173        -0.65739
C         26.92936        43.89636        -0.77795
C         28.16655        46.04310        -0.51476
C         26.90373        46.76040        -0.78343
C         28.06629        48.92557        -0.51366
C         26.90265        48.22759        -0.72128
C         27.98745        50.35332        -0.77541
C         26.78573        51.05564        -0.83686
C         28.75852        53.50588         0.21893
C         26.78450        52.49765        -0.63058
C         28.37641        54.73870         0.76655
C         27.07498        55.31945         0.53781
C         26.96099        56.69878         0.55327
C         29.03457        12.71777        -1.27912
C         30.55752        14.74008        -0.89010
C         29.67264        13.67739        -0.52427
C         30.61561        15.99750        -0.25494
C         29.56300        16.52483         0.62714
C         30.73628        18.82035         0.73676
C         29.43451        18.02911         0.61671
C         30.59718        20.26870         0.21997
C         29.42093        20.95160         0.86800
C         30.62900        23.13464         0.44944
C         29.46666        22.36289         1.07044
C         30.72130        24.57179         0.85860
C         29.44549        25.28689         1.24121
C         30.67811        27.50027         1.09473
C         29.44325        26.72778         0.68619
C         30.67647        28.86233         1.06522
C         29.41781        29.64019         1.14265
C         30.66724        31.80274         1.00807
C         29.46167        31.11399         0.99214
C         30.65870        33.31186         1.26737
C         29.44650        33.96564         0.50935
C         30.32935        36.33805         0.91231
C         29.28273        35.48052         0.56751
C         30.53237        37.61018         0.33096
C         29.35015        38.19926        -0.13962
C         30.69174        40.26926        -0.71864
C         29.39627        39.65447        -0.32628
C         30.67501        41.78508        -0.87260
C         29.38326        42.50855        -0.78944
C         30.60324        44.62357        -0.34906
C         29.39501        43.92274        -0.66510
C         30.54969        45.99804        -0.07171
C         29.34415        46.73982        -0.22903
C         30.65466        48.91374         0.16437
C         29.27271        48.22380         0.15267
C         30.79948        50.33853         0.46082
C         29.95977        51.34645         0.02670
C         29.83509        52.66393         0.56645
C         31.72922        16.85252        -0.52156
C         33.06643        18.89049        -0.12936
C         31.87676        18.14979        -0.00902
C         33.14054        20.27705         0.20113
C         31.90910        21.01489         0.42542
C         33.16581        23.13779         0.51200
C         31.93184        22.38196         0.56158
C         33.15605        24.52580         0.58744
C         31.91481        25.23643         0.85394
C         33.23428        27.42724         0.96658
C         31.94008        26.70236         1.14021
C         33.19455        28.87845         0.63506
C         31.90159        29.63002         0.74323
C         33.16678        31.74232         0.66428
C         31.92454        31.10057         0.86877
C         33.19764        33.20093         0.57403
C         32.00715        33.93861         0.88982
C         33.23397        36.10313         0.56633
C         32.18431        35.29563         1.09175
C         33.13036        37.50567         0.33469
C         31.86360        38.25548         0.23015
C         33.17273        40.26380        -0.49744
C         31.90935        39.54808        -0.29897
C         33.18315        41.80389        -0.59646
C         31.90329        42.53499        -0.55496
C         33.08838        44.59247         0.09851
C         31.85688        43.87970        -0.25199
C         33.02678        45.93205         0.41154
C         31.72245        46.66304         0.59369
C         31.77056        48.14323         0.33477
C         34.35453        20.98510         0.18878
C         35.63443        23.08929         0.35238
C         34.41403        22.39871         0.34494
C         35.69545        24.52074         0.39412
C         34.40431        25.28063         0.17995
C         35.66356        27.42803         0.56327
C         34.48724        26.71607         0.63972
C         35.68535        28.87675         0.55249
C         34.46927        29.61302         0.64288
C         35.64570        31.73650         0.15163
C         34.39788        31.01070         0.56300
C         35.66821        33.18154         0.56351
C         34.38995        33.90731         0.39741
C         35.64807        36.01577         0.10372
C         34.45435        35.35291         0.33007
C         35.63527        37.45594        -0.28674
C         34.36425        38.19973         0.05687
C         35.64816        40.32338        -0.05969
C         34.41096        39.57499        -0.12793
C         35.61816        41.72006        -0.02736
C         34.41237        42.49554        -0.15116
C         34.33342        43.84910         0.13872
C         36.88236        25.21031         0.45234
C         38.06892        27.36666        -0.22765
C         36.99541        26.70462         0.65594
C         38.12439        28.86390        -0.00660
C         36.92938        29.57049         0.31233
C         38.15409        31.69113         0.17440
C         36.94901        30.99439         0.33231
C         38.28142        33.15894         0.54393
C         36.95655        33.91744         0.52524
C         38.18252        36.06444        -0.00023
C         36.91380        35.26412        -0.18070
C         38.13710        37.44070         0.11382
C         36.90924        38.19911         0.06745
C         36.87721        39.57637         0.12737
C         39.29923        29.57359        -0.24817
C         40.54146        31.74383        -0.42349
C         39.34814        30.98510        -0.12360
C         40.55692        33.11650        -0.47685
C         39.40222        33.90777        -0.14686
C         39.39046        35.29269        -0.18140
O         28.75817        22.80828         2.29621
O         27.99803        53.12552        -0.89147
O         10.50289        27.88055        -1.13304
O         25.70835        41.57601        -2.68667
O         22.21630         8.38311         1.82093
O         24.16080        29.46586        -1.50025
O         29.14838        51.04194        -1.08124
O         27.30587        27.19102        -1.33538
O         18.91082        41.83293         0.59474
O         24.71936        18.82471         1.89991
O         32.42690        29.17554        -0.58271
O         19.35926        14.42736         1.77494
O         28.84096        40.31157         0.88104
O         18.98122        29.12175         1.05717
O         21.55064        16.27020        -1.52106
O         28.61407        29.32007         2.36628
O         26.29407        46.25631        -2.07150
O         19.83080        11.73777        -0.81876
O         16.27342        35.38801        -2.41507
O         31.23410        35.94146         1.88016
O         19.22806        17.29201        -1.67439
O         29.36273        13.56895         0.86190
O         18.12128        32.59813         1.09706
O         27.96843        32.74512         2.15865
O         30.73898        40.87957        -2.03708
O         21.00315        54.90166        -1.06968
O         24.70644        31.38235         1.72736
O         20.57059        41.18067        -2.48237
O         14.98700        33.78321         0.59244
O         21.76464        25.00114        -2.01211
O         26.00348        40.25318         0.71828
O         20.40695        25.40135         1.31901
O         27.73992        16.34771         2.17453
O         27.99035        24.67959        -0.77329
O         15.83103        24.28321         2.11058
O         36.28303        33.69182         1.81029
O         33.33524        40.97160        -1.77851
O         14.08423        39.04656        -2.43297
O         14.46614        21.62063         2.39021
O         28.64463        18.50018        -0.53063
O         19.17161        48.36387         1.62198
O         20.03895        52.85645         1.81069
O         12.67073        29.42493         1.26631
O         32.75700        27.07312         2.31778
O         15.64724        27.86158        -1.67416
O         35.61145        37.43221        -1.76857
H         36.06939        36.60532        -2.05884
O         30.43567        33.51273         2.67139
H         31.15613        33.08132         3.17359
O         12.43001        38.45399         1.26484
H         12.43887        37.59468         1.73781
O         29.71362        33.68471        -0.89269
H         29.05179        34.15392        -1.44316
O         23.97671        52.87015        -1.73611
H         24.67456        52.50804        -2.32291
O         11.81149        30.73980        -2.02242
H         11.07731        30.10772        -2.18385
O         13.07468        32.03322         1.16788
H         13.85645        32.58629         1.41765
O         34.26360        25.40425        -1.28397
H         35.03400        25.91283        -1.61767
O         17.42241        22.28070         2.63801
H         17.10629        23.11181         3.06239
O         23.34067        22.98108        -1.98755
H         22.70244        23.67521        -2.34378
O         26.15871        23.00353        -1.55444
H         26.89811        23.63478        -1.72999
O         37.46542        26.90202         2.02137
H         36.79341        26.53065         2.63082
O         16.24624        16.37534         2.71917
H         17.11451        15.96119         2.91555
O         23.70844        46.75578        -2.06872
H         24.43141        47.02367        -2.68418
O         25.76491        44.65810         1.11196
H         25.79884        43.74550         1.46914
O         20.59039        28.98439        -2.23413
H         21.44811        28.71813        -2.63343
O         11.44884        39.46509        -2.12684
H         12.27989        39.24799        -2.62100
O         16.92153        43.01720        -2.18624
H         16.68464        42.28837        -2.79897
O         20.39026        48.90298        -1.81259
H         21.24107        49.09193        -2.26237
O         21.44509        54.78019         2.39961
H         21.64249        53.84248         2.60437
O         30.38229        20.24964        -1.21176
H         30.32969        21.18865        -1.51195
O         21.20639        23.02642         1.93012
H         20.80939        23.82087         2.36168
O         24.98574        48.11797         1.12559
H         24.54846        47.37228         1.60841
O         16.95723        43.32243         1.48801
H         17.82540        42.87928         1.65141
O         20.55188        44.12677         1.36345
H         21.41963        44.27971         1.79278
O          9.86157        26.82445         2.35873
H          9.10869        26.43447         2.85220
O         20.35725        20.54727        -1.84061
H         19.47661        20.14196        -2.03635
O         30.31743        23.12078        -0.99763
H         29.94459        23.99745        -1.25192
O         25.88107        53.99406         2.05770
H         25.95436        54.79015         2.62629
O         25.29861        48.81714        -2.44311
H         26.11059        49.08974        -2.91871
O         27.61768        11.68571         1.66620
H         28.53839        12.01879         1.76625
O         28.92169        48.21587         1.57166
H         29.64062        47.72336         2.03628
O         19.49170        44.26892        -2.13056
H         18.64363        43.98623        -2.54742
O         12.26587        25.35866         2.28665
H         11.53476        25.91793         2.64897
O         31.40927        46.58024         2.05490
H         31.39497        45.62736         2.29152
O         17.70506        19.29240        -1.68047
H         17.85731        18.47891        -2.22039
O         27.56114        26.99008         2.28893
H         27.84515        27.69218         2.92504
O         26.11622        19.98526        -1.31629
H         26.12726        20.86110        -1.77073
O         12.96733        24.35200        -1.17907
H         12.83923        25.24901        -1.55750
O         15.70066        48.75661         2.40805
H         16.62514        48.91419         2.69997
O         13.00861        33.02772        -2.39155
H         12.35210        32.32337        -2.60937
O         28.01409        20.22017         2.68316
H         28.12952        21.14771         3.00251
O         19.37396        26.25608        -2.06508
H         19.75866        26.98449        -2.60065
O         37.76623        27.13143        -1.60971
H         37.80442        26.16525        -1.76691
O         35.52749        31.85182        -1.31915
H         35.29247        30.96690        -1.67266
O         29.69836        26.61577        -0.73055
H         28.87313        26.87437        -1.25510
O         31.09178        18.93327         2.13219
H         31.18960        18.03289         2.50541
O         25.57726        24.40460         1.79726
H         25.48679        25.29933         2.18946
O         23.49554        45.95970         1.49839
H         22.66041        46.11556         1.98739
O         38.73918        33.12226         1.93230
H         37.92549        33.10062         2.49056
O         36.86738        34.92840        -1.61957
H         37.74209        34.56060        -1.87333
O         29.42531        25.27054         2.67551
H         28.58903        25.70320         2.97099
O         19.72240         8.66430         2.60463
H         20.62839         8.26624         2.53973
O          9.96775        33.81190         2.07932
H         10.29943        32.90922         2.27764
O         20.49100        13.95312        -1.69985
H         21.03405        14.55058        -2.26333
H          4.85285        31.22943         0.84900
H          4.88870        33.69737         0.90943
H          7.32575        26.94511         0.87716
H          6.06739        29.07623         0.75131
H          6.14372        35.82165         0.81765
H          7.35120        37.96727         0.55377
H          9.89526        22.52911         0.43416
H          8.60352        24.69221         0.46374
H          8.60891        40.11010         0.59291
H          9.82453        42.26638         0.43651
H         12.37841        18.25282         0.68278
H         11.13340        20.40885         0.62218
H         11.03953        44.39011         0.22536
H         12.26927        46.48316         0.25466
H         14.95818        14.07493         1.49875
H         13.67818        16.16559         1.16943
H         13.49397        48.57821         0.58529
H         14.78071        50.77049         0.54652
H         17.55018        10.01919         2.30398
H         16.20551        11.97565         1.72117
H         15.93716        52.91058         0.34007
H         17.16696        55.08560         0.82260
H         19.51727         6.53094        -1.36939
H         19.13231         9.35092        -0.67598
H         18.60091        57.18059         1.27940
H         19.79172        59.22890         0.91436
H         22.41763         3.15272        -3.19030
H         20.45421         4.38221        -2.29868
H         23.09645        62.65996         0.35699
H         20.98458        61.39705         0.72199
H         24.72220         4.02277        -2.90228
H         26.23429         5.90220        -2.11321
H         26.59015        59.35822         0.29467
H         25.27798        61.47539         0.20217
H         27.56851         7.97316        -1.72178
H         28.58896        10.20861        -1.86858
H         29.10530        55.31831         1.35626
H         27.88170        57.30335         0.55717
H         29.29315        12.56583        -2.33816
H         31.21995        14.58200        -1.75593
H         31.59802        50.60675         1.17118
H         30.47901        52.94324         1.41241
H         32.55343        16.43829        -1.12394
H         33.96985        18.39560        -0.51958
H         33.95005        46.46355         0.69085
H         32.73918        48.64398         0.49485
H         35.29217        20.43582         0.01278
H         36.57690        22.52017         0.35024
H         36.55805        42.26206         0.16152
H         35.24110        44.38615         0.45485
H         37.82218        24.63810         0.52986
H         39.07009        26.91085         0.01465
H         39.08261        37.99914         0.21120
H         37.80938        40.13890         0.29609
H         40.21026        29.03004        -0.54121
H         41.45274        31.18583        -0.68633
H         41.47123        33.63562        -0.80300
H         40.32080        35.82980        -0.42892
