         284
 CSIRO Nanostructure Databank - Neutral Graphene Oxide Data Set
C        -10.58228         0.72341        -1.41020
C         -9.42536         1.49676        -0.90343
C         -8.30292         0.73392        -0.27048
C         -7.49940         1.44653         0.80562
C         -6.26354         0.69494         1.24134
C         -4.96761         1.44289         1.11353
C         -3.73806         0.66697         0.75431
C         -2.44041         1.38450         0.55591
C         -1.13073         0.70678         0.98535
C          0.03238         1.27356         0.15179
C          1.38227         0.57907         0.44479
C          2.60447         1.41044         0.28157
C          3.72592         0.89858        -0.55630
C          5.03177         1.68834        -0.60145
C          6.31215         0.94544        -0.92018
C          7.63405         1.74686        -0.81200
C          8.83872         0.85971        -0.52743
C         10.00540         1.43498         0.27835
C         10.76335         0.59969         1.24193
C         -9.58186         2.93713        -0.58871
C         -8.61632         3.64414         0.04104
C         -7.52796         2.96528         0.82079
C         -6.24255         3.75911         1.04721
C         -4.95475         2.96240         0.97356
C         -3.74851         3.55615         0.30014
C         -2.43153         2.87032         0.45151
C         -1.25438         3.53313         0.31285
C          0.07456         2.85266         0.04041
C          1.21609         3.57504         0.74637
C          2.52428         2.87648         0.63257
C          3.81517         3.62189         0.67546
C          5.03106         3.16747        -0.14199
C          6.31905         3.60559         0.57881
C          7.57474         2.89666         0.20501
C          8.86823         3.64631         0.27223
C          9.99740         2.93012         0.45018
C         -8.76452         5.14323         0.19232
C         -7.45439         5.89704         0.08639
C         -6.25975         5.32667         0.85396
C         -4.84261         5.93830         0.37048
C         -3.79787         4.97340        -0.17016
C         -2.47830         5.66709        -0.45255
C         -1.21462         4.96468        -0.10509
C          0.09437         5.74734         0.05422
C          1.08796         5.08619         1.03161
C          2.45804         5.85593         1.01266
C          3.77046         5.08531         0.95694
C          5.07594         5.84488         0.74330
C          6.38157         5.10673         0.85440
C          7.73619         5.86703         0.72724
C          8.79452         5.10087        -0.15296
C         -7.44528         7.19432        -0.29325
C         -6.18697         8.01188        -0.09863
C         -5.04497         7.11521        -0.66057
C         -3.73766         7.87455        -0.92933
C         -2.45092         7.15669        -0.68518
C         -1.36404         8.01351        -0.02836
C         -0.09604         7.32847         0.50278
C          1.22912         7.91676        -0.12276
C          2.46713         7.29593         0.57160
C          3.73576         7.90986         0.03501
C          5.01440         7.14538         0.01050
C          6.35989         7.76753        -0.44395
C          7.48995         7.30953         0.42223
C         -6.16194         9.41439        -0.65261
C         -5.00472        10.08055        -0.77064
C         -3.65320         9.41633        -0.89257
C         -2.50940         9.79267         0.10516
C         -1.16791         9.43614        -0.49835
C          0.01021        10.11175        -0.45663
C          1.28808         9.43663        -0.26231
C          2.49139        10.07291        -0.32598
C          3.79794         9.42352         0.08743
C          5.06077         9.95463        -0.56139
C          6.21191         9.26599        -0.64447
C        -10.68655        -0.61678        -1.26247
C         -9.64773        -1.44932        -0.66804
C         -8.26383        -0.82625        -0.43636
C         -7.64287        -1.46363         0.87471
C         -6.28857        -0.81997         1.17295
C         -4.99781        -1.56902         1.08888
C         -3.65748        -0.79881         1.21570
C         -2.50572        -1.44007         0.44733
C         -1.16313        -0.80824         0.70786
C          0.05256        -1.52970         0.20329
C          1.45580        -0.93912         0.16143
C          2.26939        -1.28323        -1.08636
C          3.64861        -0.52329        -1.06949
C          4.95424        -1.28630        -0.95553
C          6.25708        -0.55196        -0.91220
C          7.45516        -1.28697        -0.76106
C          8.67243        -0.58534        -0.67270
C         10.05615        -1.70125         0.55276
C         10.72627        -0.75012         1.42532
C         -9.84490        -2.77977        -0.46055
C         -8.78304        -3.66088         0.09314
C         -7.60002        -3.00093         0.73909
C         -6.27883        -3.73409         0.67787
C         -5.04973        -2.89050         0.31126
C         -3.74214        -3.70077         0.49895
C         -2.54229        -2.88407         0.07531
C         -1.27785        -3.63858        -0.02904
C         -0.09341        -2.85652        -0.46026
C          1.07040        -3.55322        -1.09007
C          2.37255        -2.79729        -1.31216
C          3.67116        -3.53454        -1.45679
C          4.94852        -2.80054        -1.08348
C          6.25636        -3.52582        -1.26782
C          7.50910        -2.78028        -0.86076
C          8.59372        -3.59149        -0.10903
C          9.47630        -2.89859         0.86006
C         -8.66860        -5.07315        -0.35690
C         -7.55100        -5.82047        -0.18139
C         -6.27931        -5.17586         0.24782
C         -5.02496        -5.77444        -0.34404
C         -3.75136        -5.02060        -0.27017
C         -2.43220        -5.79722        -0.42904
C         -1.24808        -4.99049         0.05478
C          0.07318        -5.66096         0.10063
C          1.19453        -5.00332        -0.67276
C          2.34326        -5.81013        -1.19463
C          3.64339        -5.07353        -1.48235
C          4.95043        -5.82556        -1.32204
C          6.24717        -5.03651        -1.22335
C          7.40019        -5.73906        -0.58821
C          8.37792        -5.05091         0.04620
C         -7.57780        -7.32629        -0.41925
C         -6.21341        -8.02931        -0.51067
C         -4.92446        -7.26561        -0.49916
C         -3.65744        -7.91657        -0.02344
C         -2.49428        -7.21418         0.09998
C         -1.29750        -7.74570         0.89270
C          0.12384        -7.13440         0.53604
C          0.95227        -7.94604        -0.46981
C          2.29532        -7.29409        -0.87106
C          3.59898        -8.00116        -0.68283
C          4.91141        -7.26095        -0.86662
C          6.11123        -7.86948        -0.12866
C          7.43476        -7.25999        -0.62460
C         -6.15066        -9.45285        -0.09575
C         -4.98153       -10.05429         0.21205
C         -3.70466        -9.34820         0.28757
C         -2.56451       -10.00181         0.64239
C         -1.26374        -9.32334         1.00820
C         -0.06928       -10.02915         0.40323
C          1.10654        -9.38671        -0.00368
C          2.34011       -10.05408        -0.00376
C          3.63593        -9.29757         0.12309
C          4.90142       -10.04699        -0.23284
C          6.05990        -9.37698        -0.31541
O         -3.19721         0.83695        -0.57871
O         -4.53114        -5.01188        -1.50783
O         -2.23045         8.67088         1.05992
O         -0.32625         0.82803        -1.17639
H          0.45714         0.51562        -1.69710
O          6.92101         2.63951         1.48561
O         -4.11196         3.92423        -1.10189
O          1.22291        -8.33090         2.33151
H          0.35176        -8.77299         2.58994
O          8.70390        -3.24878        -1.52111
O         -8.12562         1.31713        -1.59396
O         -8.50231        -1.11139         1.94263
H         -8.94455        -1.94077         2.25276
O         -5.71696        -1.51381         2.34176
O          6.44388        -4.29321        -2.48006
O          0.01082        -3.02666        -1.92741
O         -0.37169        -1.61611         1.61834
O          0.86757        -7.02764         1.81812
O          0.51589         5.14923         2.33394
H          1.08761         4.61854         2.93254
O          5.53352         1.58462        -1.96995
O         -2.91886         7.39670        -2.05290
O         -2.75908        -1.84065        -0.91670
O          1.78196         2.97058         1.90981
O          2.86905        -8.11745        -1.93455
O          5.78249         5.76645         2.02492
O          8.34842         5.80879         2.03442
H          7.64420         6.00764         2.69299
O         -6.01440         8.26206         1.31190
H         -6.36934         7.47723         1.82268
O          2.98578        -3.00623        -2.62873
O          2.18621        -1.59959         1.20431
H          1.68410        -1.48388         2.04219
O          4.03619         4.10915         2.01706
O          2.45965         6.96381         1.97098
O         -8.15055         2.16169         1.88823
O         10.10758         1.24251        -1.18046
O         -8.60811        -3.61305         1.58402
O          2.76594        -5.53209        -2.54568
O         -3.17081         9.89685        -2.17234
H         -2.83690         9.11508        -2.67430
O         -6.50341         5.82776         2.14441
O         -5.49416         6.56539        -1.90557
H         -4.70159         6.29180        -2.41971
O          3.44400         0.58582        -1.96583
O          7.72291        -7.69705        -1.95017
H          6.98639        -7.39447        -2.53357
O         -1.12074        -9.62328         2.45015
H         -1.75897        -9.02414         2.90833
O          6.61635         7.21140        -1.75868
H          5.75192         7.18618        -2.23156
O          5.13970        -6.93002        -2.26574
O         -1.68548         5.03080        -1.50669
O         -7.43137        -1.19803        -1.45526
O         -5.22638        -2.48174        -1.04478
H         -5.07783        -3.24451        -1.65129
O          0.36397         3.14800        -1.34780
H         -0.30464         2.66557        -1.88976
O          0.15507        -7.96929        -1.66799
H          0.72975        -8.27970        -2.40233
O          4.13175         7.17964        -1.16142
O         -5.42690         3.52445         2.22293
O          9.89442        -1.24642        -0.78422
O         -0.93500         0.95313         2.37424
H         -1.53838         0.35635         2.87577
O          7.86805         2.39709        -2.08514
H          8.75062         2.10773        -2.41446
O          4.86132        -2.19703         0.23746
O          0.71967         5.70676        -1.21481
H          0.01049         5.65328        -1.90894
O          2.28641         0.75201         1.56432
O          3.94366         9.71385         1.51410
H          3.90320        10.68512         1.63730
O         -3.27093        -0.78893         2.60116
H         -4.10955        -0.75413         3.12562
O         -3.55522        -3.99464         1.89236
H         -4.39952        -4.36477         2.24917
O         -2.16068        -5.93668        -1.84701
H         -3.00969        -5.79568        -2.32984
O          1.25532         7.58755        -1.48031
O         -5.53296         1.10738         2.41812
O         -6.12442        -4.79654         1.67009
O         -0.07228         7.48469         1.88624
H         -0.93214         7.84853         2.19522
O          1.53046        -0.79799        -2.21289
H          1.89166        -1.21426        -3.02718
O          3.76393        -8.96497         1.54502
H          2.87221        -8.71132         1.90173
O         -5.48493        -7.75998        -1.75691
O          6.01384        -7.51816         1.26588
H          5.27151        -8.04609         1.66211
O          1.13718        -4.94398         0.79967
O          4.97524         3.97465        -1.34008
H          5.30184         3.42048        -2.09180
O          8.44957         5.12373        -1.52398
H          8.10677         4.24207        -1.81416
O         -4.18170         6.44303         1.53728
H         -4.85585         6.34737         2.27259
O         -9.71794         5.65867        -0.73358
H         -9.34103         5.58686        -1.63454
O         -1.60974        -7.22391         2.21459
H         -0.79809        -6.77954         2.56561
O         -8.32519        -7.91916         0.65643
H         -8.14113        -7.42641         1.48258
H         11.23587        -1.15848         2.31203
H         11.29890         1.18485         2.00629
H         10.98000         3.42899         0.47393
H          9.78104         5.61054        -0.00651
H          8.08034         8.04774         0.98734
H          7.09982         9.77344        -1.05419
H          5.06274        11.02332        -0.83314
H          2.50622        11.16316        -0.49283
H          0.01173        11.21151        -0.50805
H         -2.62019        10.77168         0.62197
H         -5.01516        11.14950        -1.03593
H         -7.11478         9.96425        -0.70516
H         -8.35510         7.65422        -0.71089
H         -9.16952         5.33774         1.22380
H        -10.43463         3.47601        -1.03197
H        -11.41438         1.28692        -1.85961
H        -11.59958        -1.12922        -1.60562
H        -10.80579        -3.24494        -0.73484
H         -9.57868        -5.55037        -0.75412
H         -8.14261        -7.54503        -1.36262
H         -7.09272       -10.01845        -0.06243
H         -4.97473       -11.12034         0.48504
H         -2.59904       -11.08620         0.82991
H         -0.00998       -11.10247         0.64900
H          2.34774       -11.11449         0.29815
H          4.86134       -11.13770        -0.37138
H          6.99746        -9.90413        -0.54775
H          8.26266        -7.61815         0.03624
H          9.16152        -5.61164         0.58053
H          9.56170        -3.31885         1.87188
