         600
 CSIRO Nanostructure Databank - Neutral Graphene Oxide Data Set
C         22.97518        27.33078        -0.45375
C         22.96290        28.70192        -0.48062
C         22.98798        31.66255        -0.59373
C         22.99566        33.03934        -0.66557
C         23.05620        35.96199        -1.05391
C         23.04322        37.33832        -1.04742
C         23.00829        40.27772        -0.98494
C         23.01916        41.64346        -0.97548
C         23.02141        44.57023        -0.97927
C         23.04034        45.90105        -1.21605
C         25.41342        24.51264        -0.13738
C         24.21991        25.19711        -0.27720
C         25.41380        27.33082        -0.10505
C         24.19613        26.61128        -0.27922
C         25.39672        28.76058        -0.13717
C         24.16899        29.45766        -0.33998
C         25.42175        31.57661        -0.32292
C         24.18391        30.88749        -0.43533
C         25.45511        33.01577        -0.67477
C         24.20577        33.78702        -0.72063
C         25.50248        35.91218        -0.74911
C         24.25980        35.19738        -0.87111
C         25.54995        37.39692        -1.04090
C         24.22716        38.11116        -0.90514
C         25.43283        40.24495        -0.55396
C         24.21423        39.51811        -0.82580
C         25.44178        41.65333        -0.51481
C         24.22976        42.38971        -0.77267
C         25.48241        44.52235        -0.68336
C         24.24111        43.79759        -0.83850
C         25.50963        45.92676        -0.84574
C         24.33406        46.60982        -1.50538
C         25.38766        48.76879        -0.87563
C         24.28062        48.08085        -1.21708
C         27.96075        23.07583         0.06797
C         27.90357        24.47643         0.13221
C         26.64200        25.19720         0.03291
C         27.85523        27.34945         0.31731
C         26.63867        26.61670         0.07644
C         27.81331        28.74943         0.37179
C         26.61044        29.48390         0.09138
C         27.78846        31.69579         0.54195
C         26.60518        30.90372         0.02079
C         27.93708        33.10277         0.01326
C         26.75881        33.78557        -0.54708
C         27.92264        35.96484        -0.21761
C         26.70251        35.25353        -0.48277
C         27.90565        37.39414        -0.10590
C         26.68499        38.11707        -0.35298
C         27.76197        40.23979         0.34171
C         26.62032        39.49549        -0.21046
C         27.80446        41.69468         0.19128
C         26.66127        42.38109        -0.20121
C         27.84261        44.56596        -0.03187
C         26.66570        43.82726        -0.29578
C         27.84372        45.96672        -0.13310
C         26.67287        46.66523        -0.53193
C         27.84193        48.84956        -0.48848
C         26.66474        48.11604        -0.63288
C         27.92697        50.25067        -0.77576
C         30.39605        23.07345         0.16669
C         29.17977        22.39185         0.07319
C         30.37213        24.49896         0.32259
C         29.12597        25.20419         0.27630
C         30.34107        27.31137         0.55559
C         29.11511        26.62757         0.41801
C         30.36149        28.74877         0.85288
C         29.01974        29.50411         0.74150
C         30.31443        31.62982         0.85479
C         29.07906        30.93133         0.51777
C         30.31730        33.14858         0.72100
C         29.09029        33.81581         0.21568
C         30.36206        35.95273         0.12332
C         29.13414        35.25473         0.00139
C         30.35933        37.38384         0.14931
C         29.11197        38.07191         0.17010
C         30.36232        40.26386         0.44689
C         29.10102        39.49758         0.50696
C         30.35365        41.66728         0.49274
C         29.05472        42.38646         0.57898
C         30.36605        44.58613         0.29729
C         29.06791        43.89257         0.45763
C         30.37177        45.98466         0.17999
C         29.07674        46.70381         0.21067
C         30.37983        48.87049        -0.21318
C         29.08196        48.19868        -0.01290
C         30.37639        50.25190        -0.49933
C         29.11968        50.91779        -0.74271
C         32.96530        20.39323        -0.55656
C         31.74098        21.04009        -0.41322
C         32.88696        23.05473         0.30051
C         31.68030        22.37530         0.03937
C         32.83947        24.45461         0.85420
C         31.58905        25.21294         0.48652
C         32.83434        27.35857         0.59462
C         31.58690        26.61766         0.54457
C         32.83717        28.77893         0.56024
C         31.61123        29.50924         0.68408
C         32.82218        31.65033         0.62170
C         31.60555        30.91125         0.73531
C         32.81857        33.09425         0.58013
C         31.60438        33.82780         0.51664
C         32.83897        35.92534         0.29120
C         31.60981        35.22691         0.28454
C         32.88159        37.40914         0.00272
C         31.57312        38.12447         0.24334
C         32.83757        40.26435         0.41459
C         31.58510        39.53119         0.35826
C         32.82280        41.70126         0.41030
C         31.57545        42.40756         0.42345
C         32.81502        44.56638         0.28309
C         31.58051        43.84804         0.34138
C         32.82542        45.99369         0.17616
C         31.59099        46.71172         0.10604
C         32.83915        48.83897        -0.18453
C         31.59577        48.14531        -0.07257
C         32.84867        50.25659        -0.40453
C         31.61548        50.96331        -0.54957
C         32.82411        53.06991        -0.74617
C         31.64293        52.38073        -0.70759
C         35.44931        18.87441        -0.04976
C         35.47693        20.31860        -0.47777
C         34.16808        21.03851        -0.24896
C         35.36741        23.11408         0.41804
C         34.13944        22.39458         0.16979
C         35.33584        24.53204         0.59226
C         34.10337        25.23064         0.61615
C         35.30726        27.37109         0.50563
C         34.07397        26.64213         0.59183
C         35.28375        28.77454         0.38726
C         34.06853        29.50472         0.45213
C         35.27316        31.68669         0.38757
C         34.05716        30.94693         0.47089
C         35.29195        33.09151         0.48551
C         34.05387        33.80872         0.52555
C         35.31205        35.96299         0.49721
C         34.05197        35.23380         0.45490
C         35.32107        37.36132         0.56215
C         34.01072        38.08053         0.77354
C         35.29082        40.25589         0.50013
C         34.05432        39.56643         0.49860
C         35.29149        41.68755         0.45659
C         34.05607        42.41242         0.42679
C         35.26651        44.58079         0.42259
C         34.05508        43.85614         0.36886
C         35.30102        45.99730         0.28178
C         34.06744        46.70707         0.13500
C         35.31159        48.83233        -0.13617
C         34.07312        48.12613        -0.05395
C         35.32156        50.24477        -0.37302
C         34.08566        50.96367        -0.49629
C         35.29383        53.10774        -0.79321
C         34.08060        52.39090        -0.67912
C         35.36637        54.53553        -0.92780
C         37.87466        18.86243         0.24612
C         36.60687        18.19730         0.19061
C         37.87358        20.30437         0.31323
C         36.67292        21.02928         0.10496
C         37.83790        23.09374         0.70877
C         36.62976        22.41353         0.39637
C         37.80587        24.53965         1.11855
C         36.56068        25.26908         0.68520
C         37.81686        27.39192         0.58732
C         36.55946        26.66116         0.59141
C         37.82480        28.78129         0.39847
C         36.55261        29.47541         0.13648
C         37.81335        31.69215         0.36109
C         36.54286        30.98861         0.12547
C         37.78812        33.10630         0.47490
C         36.54499        33.81342         0.47393
C         37.78302        35.94729         0.60104
C         36.54617        35.23142         0.50996
C         37.76979        37.38766         0.59000
C         36.54433        38.09135         0.56908
C         37.75699        40.24894         0.44462
C         36.53456        39.53878         0.52979
C         37.76027        41.68700         0.45197
C         36.53422        42.37858         0.50935
C         37.82397        44.59064         0.62913
C         36.50996        43.83993         0.68759
C         37.79851        46.02916         0.30137
C         36.55170        46.71383         0.21945
C         37.78537        48.84253        -0.08286
C         36.55210        48.13055        -0.00711
C         37.79648        50.25585        -0.31994
C         36.56152        50.92509        -0.51247
C         37.85597        53.13516        -0.62049
C         36.55010        52.35566        -0.82912
C         37.73557        54.56794        -0.24575
C         36.50787        55.24780        -0.68629
C         40.33586        16.05565        -0.05586
C         39.15061        16.74511        -0.03919
C         40.32642        18.80791         0.59028
C         39.11824        18.13818         0.28359
C         40.22270        20.19377         1.18994
C         39.06309        20.99307         0.65695
C         40.32896        23.12072         0.91736
C         39.06164        22.39642         0.78992
C         40.30536        24.55782         0.78635
C         39.08390        25.26778         0.79065
C         40.29073        27.40001         0.54679
C         39.06246        26.67552         0.65799
C         40.27755        28.82616         0.46219
C         39.04031        29.52719         0.39611
C         40.26765        31.69199         0.46689
C         39.02647        30.97021         0.39083
C         40.26547        33.10497         0.55735
C         39.02312        33.82597         0.58692
C         40.26676        35.97438         1.01453
C         39.00068        35.23492         0.68321
C         40.23838        37.41325         0.56588
C         39.01107        38.11264         0.51365
C         40.22569        40.23356         0.17036
C         38.99856        39.53323         0.37917
C         40.23384        41.68510         0.12485
C         39.01727        42.40363         0.35001
C         40.26352        44.53187         0.22433
C         39.05117        43.81862         0.37392
C         40.27303        45.97153         0.16197
C         39.02123        46.70108         0.13507
C         40.24941        48.83280        -0.01367
C         39.03251        48.13461         0.00515
C         40.28474        50.26110        -0.05792
C         39.04110        50.98533        -0.27143
C         40.28439        53.13046        -0.10038
C         39.06955        52.39220        -0.25942
C         40.30206        54.52306        -0.01284
C         39.04441        55.29647         0.10124
C         40.31693        57.38874        -0.07226
C         39.11950        56.76004        -0.00657
C         42.79253        16.01955         0.12160
C         41.56589        16.72201         0.20630
C         42.82669        18.77708         0.73942
C         41.56848        18.11420         0.54287
C         42.85505        20.21593         1.12272
C         41.55289        20.96359         1.22836
C         42.78955        23.13032         0.76530
C         41.54568        22.43654         0.98926
C         42.76999        24.54802         0.59260
C         41.53629        25.26879         0.64922
C         42.75884        27.40859         0.43809
C         41.52562        26.68918         0.54560
C         42.75099        28.82949         0.39454
C         41.51379        29.54896         0.42363
C         42.74242        31.68837         0.36850
C         41.50690        30.97001         0.42202
C         42.74592        33.10908         0.39640
C         41.51336        33.83367         0.53731
C         42.73961        35.97580         0.50541
C         41.52160        35.23726         0.61712
C         42.70527        37.38856         0.43727
C         41.45372        38.10107         0.36822
C         42.67604        40.16286        -0.30634
C         41.42786        39.49999         0.09430
C         42.68887        41.71677        -0.37873
C         41.44533        42.40159        -0.02253
C         42.73432        44.52237         0.05128
C         41.48730        43.81737         0.09204
C         42.73809        45.94307         0.07368
C         41.49549        46.64320         0.05391
C         42.76990        48.79164         0.23028
C         41.53407        48.10537        -0.28051
C         42.69422        50.23309         0.64570
C         41.49385        50.94231         0.07495
C         42.79898        53.10771         0.17102
C         41.57960        52.38409        -0.32786
C         42.79096        54.52239         0.17889
C         41.55173        55.23991         0.02963
C         42.78702        57.34877         0.13839
C         41.55984        56.65318         0.01603
C         43.98899        16.68806         0.24846
C         45.29734        18.81489         0.37375
C         44.02874        18.08771         0.51009
C         45.29799        20.22875         0.34617
C         44.17945        20.98746         1.02307
C         45.18153        23.12322         0.21350
C         44.02464        22.43069         0.57776
C         45.20539        24.54683         0.20235
C         43.99119        25.26226         0.39796
C         45.22301        27.39608         0.25472
C         43.99104        26.69166         0.36142
C         45.22084        28.82358         0.26195
C         43.98781        29.54091         0.31796
C         45.20723        31.67606         0.19905
C         43.97730        30.96764         0.29292
C         45.20738        33.11413         0.14604
C         43.98051        33.82496         0.29438
C         45.20291        35.94359         0.14150
C         43.98472        35.25354         0.34184
C         45.27106        37.40059         0.29388
C         43.95465        38.16357         0.42493
C         45.18040        40.22811        -0.57153
C         43.94697        39.53905        -0.04922
C         45.19389        41.70812        -0.26648
C         43.98256        42.40586        -0.20535
C         45.21049        44.52549         0.05453
C         43.97728        43.81917        -0.01094
C         45.20837        45.95588         0.16326
C         43.98089        46.65673         0.12467
C         45.22294        48.79936         0.46629
C         43.96978        48.10038         0.26924
C         45.21944        50.23091         0.55978
C         44.00338        50.96134         0.48504
C         45.20806        53.11944         0.63806
C         43.99191        52.39055         0.42869
C         45.23899        54.51940         0.55085
C         44.01180        55.24896         0.35591
C         43.97589        56.66677         0.31869
C         47.67101        18.83656        -0.17551
C         46.50476        18.13892         0.10284
C         47.66221        20.24096        -0.28997
C         46.45653        20.93029        -0.02434
C         47.68852        23.13021        -0.19161
C         46.37767        22.39903        -0.35644
C         47.69060        24.52933        -0.07497
C         46.44664        25.25494         0.07123
C         47.70187        27.37900         0.12568
C         46.45575        26.66697         0.14709
C         47.70713        28.80310         0.18580
C         46.45730        29.54283         0.22246
C         47.68695        31.71409         0.20807
C         46.42853        30.95144         0.19686
C         47.68231        33.14075        -0.19661
C         46.41415        33.83624        -0.10498
C         47.60125        35.98683        -0.55956
C         46.38582        35.24188        -0.17709
C         47.68586        37.43506        -0.32720
C         46.48387        38.14099        -0.12966
C         47.69213        40.24740        -0.29083
C         46.47041        39.53496        -0.23334
C         47.68394        41.68359        -0.21464
C         46.43661        42.39451        -0.15375
C         47.68537        44.51927         0.10408
C         46.44468        43.81329         0.00173
C         47.68161        45.94318         0.27347
C         46.45309        46.65906         0.29835
C         47.69337        48.78694         0.58868
C         46.44961        48.08642         0.45857
C         47.69114        50.21499         0.74353
C         46.46774        50.91290         0.73016
C         47.75428        53.12611         1.01826
C         46.42634        52.36537         0.97182
C         47.69927        54.54902         0.65932
C         46.51697        55.20018         0.52900
C         50.07621        20.34612        -0.91624
C         48.89118        20.99145        -0.56268
C         50.14150        23.12912        -0.51620
C         48.90301        22.41842        -0.40933
C         50.15555        24.55119        -0.33069
C         48.93738        25.24477        -0.10758
C         50.18243        27.36855         0.08097
C         48.93626        26.67002         0.03413
C         50.18651        28.80212         0.12763
C         48.94331        29.47925         0.14729
C         50.17327        31.60620        -0.39333
C         48.96504        30.94954         0.17484
C         50.14792        33.08002        -0.61323
C         48.86568        33.79602        -0.44280
C         50.17613        35.97018        -0.59263
C         48.90119        35.23617        -0.72783
C         50.16505        37.37644        -0.53019
C         48.91767        38.11203        -0.43801
C         50.16361        40.24971        -0.31600
C         48.92589        39.53401        -0.32999
C         50.15421        41.66524        -0.18926
C         48.91166        42.38328        -0.12553
C         50.15840        44.50768         0.16630
C         48.91714        43.80809         0.04194
C         50.15887        45.91934         0.38126
C         48.92476        46.64135         0.41571
C         50.16706        48.75158         0.74317
C         48.92089        48.06188         0.57313
C         50.18333        50.19149         0.84770
C         48.95811        50.92401         0.83736
C         50.23568        53.01026         0.82411
C         48.99810        52.34175         0.86462
C         51.27464        21.05889        -1.07546
C         52.62848        23.18224        -1.09325
C         51.33807        22.42844        -0.83836
C         52.65710        24.57749        -0.50490
C         51.40718        25.26390        -0.31044
C         52.67824        27.32789         0.21098
C         51.40067        26.64231        -0.01376
C         52.69515        28.85926         0.28677
C         51.41824        29.54860         0.09289
C         52.65922        31.66204        -0.30852
C         51.45420        30.92338        -0.17608
C         52.63844        33.09456        -0.47380
C         51.42211        33.81714        -0.54715
C         52.64225        35.95527        -0.53407
C         51.40576        35.24001        -0.54696
C         52.63291        37.38130        -0.52077
C         51.40156        38.09802        -0.48413
C         52.62901        40.24051        -0.40019
C         51.40040        39.52838        -0.39894
C         52.62121        41.67099        -0.26405
C         51.39064        42.37892        -0.12586
C         52.63858        44.49543         0.16479
C         51.39677        43.79598         0.06340
C         52.64582        45.88951         0.49035
C         51.39977        46.60709         0.58960
C         52.60209        48.71303         1.20135
C         51.36889        48.01210         0.81315
C         52.66111        50.17243         1.11304
C         51.42623        50.89369         0.92578
C         51.42432        52.30491         0.86156
C         55.05177        23.04583        -0.54015
C         53.87662        22.41407        -0.73646
C         55.14483        24.49725        -0.47184
C         53.88886        25.22951        -0.36446
C         55.12590        27.37394        -0.16040
C         53.94000        26.65163        -0.11141
C         55.14571        28.82343        -0.19948
C         53.93845        29.55939        -0.05903
C         55.13216        31.67285        -0.46232
C         53.90976        30.95932        -0.27741
C         55.11995        33.09812        -0.55489
C         53.88084        33.81164        -0.52416
C         55.11415        35.95173        -0.62988
C         53.87689        35.23543        -0.56470
C         55.10805        37.38111        -0.63053
C         53.87262        38.09467        -0.54429
C         55.09970        40.21862        -0.60167
C         53.86619        39.51715        -0.50287
C         55.06562        41.68195        -0.67082
C         53.83949        42.40374        -0.30866
C         55.13567        44.49767         0.05795
C         53.87060        43.79466        -0.05609
C         55.12620        45.89523         0.40376
C         53.90096        46.55179         0.64454
C         55.17836        48.71801         1.01612
C         53.93975        47.93734         1.12968
C         55.11468        50.09925         1.21902
C         53.89909        50.80171         1.25540
C         57.63579        24.49895        -0.53874
C         56.36301        25.16365        -0.40817
C         57.61467        27.34358        -0.60747
C         56.42660        26.62987        -0.02657
C         57.52628        28.77593        -1.05053
C         56.33665        29.52857        -0.52348
C         57.59019        31.66065        -0.77457
C         56.35338        30.94211        -0.58229
C         57.58679        33.08365        -0.77296
C         56.35080        33.80954        -0.67540
C         57.58349        35.95919        -0.76941
C         56.34659        35.23677        -0.69752
C         57.57831        37.38422        -0.74522
C         56.34162        38.09804        -0.68723
C         57.58477        40.24946        -0.57720
C         56.32855        39.52933        -0.67561
C         57.60789        41.62448        -0.32348
C         56.41049        42.42977        -0.50867
C         57.61357        44.48358         0.19937
C         56.36342        43.82102        -0.04366
C         57.60871        45.89937         0.39824
C         56.37583        46.60791         0.52127
C         57.65978        48.69285         0.78513
C         56.40345        48.01388         0.75746
C         58.80113        25.20338        -0.64279
C         60.00510        27.37010        -1.08217
C         58.79546        26.64989        -0.77126
C         60.02335        28.74987        -1.09332
C         58.83581        29.51886        -0.94897
C         60.03787        31.69370        -0.98302
C         58.82679        30.93624        -0.90229
C         60.03286        33.06456        -0.96780
C         58.81897        33.81062        -0.87112
C         60.03228        35.99139        -0.91264
C         58.81709        35.23926        -0.85296
C         60.03573        37.36011        -0.86846
C         58.82034        38.11128        -0.77426
C         60.04794        40.29759        -0.69719
C         58.82443        39.51905        -0.65866
C         60.07477        41.60169        -0.33960
C         58.85150        42.25709         0.25245
C         60.04508        44.48152         0.35413
C         58.84184        43.77244         0.20648
C         60.05968        45.86714         0.46198
C         58.85074        46.59404         0.50366
C         58.84448        48.01131         0.66773
O         30.18640        32.52934         2.05512
O         37.40588        52.78975        -1.96012
O         28.24036        39.79790         1.65648
O         28.93748        47.62197         1.34519
O         42.57923        40.90294        -1.59676
O         48.10023        35.62352        -1.90032
O         55.77105        42.24230        -1.82119
O         28.91232        43.24547         1.76750
O         52.75079        28.03798         1.50041
O         53.23117        48.14473         2.39468
O         36.54312        30.21974        -1.13822
O         37.19409        44.27875         1.92356
O         26.32885        33.24884        -1.85435
O         50.03892        32.12355        -1.75946
O         38.11935        54.81629         1.14554
O         44.81849        37.88023         1.60800
O         47.03284        52.78256         2.24725
O         48.49842        31.52089         1.44740
O         42.26812        20.52678         2.44822
O         29.60356        29.10280         2.04965
O         25.87424        37.48003        -2.48833
H         25.21864        36.92329        -2.96086
O         44.69996        21.11666         2.38563
H         43.91488        21.17717         2.98064
O         33.68405        37.93650         2.18711
H         34.38831        38.37331         2.71011
O         24.55160        46.48491        -2.96190
H         24.54887        45.52634        -3.17024
O         57.26282        28.68522        -2.52260
H         58.06802        28.29592        -2.92809
O         41.74837        52.35103        -1.80565
H         40.96668        51.88691        -2.17738
O         27.48410        31.87917         1.98013
H         28.33431        32.15568         2.40877
O         42.44037        50.21051         2.11379
H         43.23517        49.82305         2.54005
O         32.75566        24.30076         2.32724
H         31.92789        23.81058         2.52051
O         39.82420        19.95712         2.58070
H         40.66097        19.83661         3.08952
O         41.66287        48.15350        -1.76665
H         42.46840        47.64263        -1.99975
O         52.66901        23.37079        -2.55470
H         53.49811        23.85221        -2.76232
O         56.68337        26.61109         1.43570
H         55.88847        26.22776         1.86529
O         40.30645        36.03067         2.49810
H         41.14670        36.47230         2.74752
O         35.66818        20.30747        -1.94562
H         36.50897        19.83402        -2.12195
O         33.18779        37.55947        -1.41639
H         32.47968        37.11481        -1.92754
O         46.12473        22.42557        -1.81804
H         46.91987        22.05347        -2.25695
O         45.11210        40.11479        -2.04528
H         44.22934        40.48131        -2.30803
O         37.73151        24.51678         2.59613
H         37.64851        25.44565         2.90015
O         58.86348        41.92978         1.69392
H         58.92194        40.95311         1.76713
H         22.03957        26.76617        -0.57639
H         22.00716        29.22253        -0.62711
H         22.01627        31.15104        -0.60941
H         22.03023        33.56056        -0.72077
H         22.09915        35.43494        -1.16124
H         22.06971        37.84349        -1.11709
H         22.05660        39.75895        -1.16093
H         22.07569        42.17770        -1.14761
H         22.05349        44.06617        -0.84904
H         22.09889        46.46308        -1.30760
H         25.39329        23.41515        -0.15990
H         23.27873        24.64305        -0.40373
H         25.31844        49.85556        -0.72399
H         23.32426        48.60400        -1.36691
H         27.03944        22.48493        -0.01544
H         27.01807        50.80376        -1.04891
H         29.16251        21.29694        -0.01026
H         29.11674        51.99005        -0.97584
H         32.97791        19.36289        -0.93758
H         30.82218        20.50008        -0.67729
H         32.79970        54.16174        -0.85393
H         30.70489        52.94508        -0.77968
H         34.49441        18.32979        -0.04397
H         34.45149        55.09641        -1.16523
H         36.55977        17.11814         0.39750
H         36.47943        56.34585        -0.71711
H         40.35426        14.98435        -0.30269
H         38.21674        16.22103        -0.28268
H         40.36522        58.48600        -0.13174
H         38.18492        57.33756         0.00983
H         42.77994        14.94198        -0.09616
H         42.78138        58.44810         0.12217
H         44.92232        16.12558         0.12166
H         44.89973        57.24583         0.44673
H         48.59994        18.27120        -0.32731
H         46.55341        17.04332         0.14506
H         48.63430        55.09801         0.48098
H         46.53816        56.27229         0.29126
H         50.08951        19.26144        -1.08715
H         50.27016        54.10749         0.82123
H         52.17016        20.50730        -1.39178
H         52.36908        52.86260         0.87814
H         55.95980        22.45079        -0.36610
H         53.85505        21.31498        -0.74731
H         56.03873        50.69170         1.25059
H         53.95426        51.89713         1.31060
H         57.66992        23.40119        -0.59073
H         57.68570        49.78043         0.93281
H         59.75923        24.67317        -0.74517
H         60.94126        26.80720        -1.20525
H         60.99269        29.25706        -1.19846
H         61.00101        31.17289        -1.06525
H         60.99457        33.58914        -1.03824
H         60.99579        35.47008        -0.98273
H         60.99894        37.88637        -0.89933
H         60.97450        39.82090        -1.04750
H         61.02487        42.15222        -0.38313
H         61.00029        43.94105         0.39561
H         61.01482        46.40255         0.55976
H         59.80256        48.54826         0.71812
