         324
 CSIRO Nanostructure Databank - Neutral Graphene Oxide Data Set
C          1.36740         2.00504        -0.97750
C          1.32340         3.36495        -1.05499
C          2.60779         1.29900        -0.99245
C          2.57803         4.15329        -1.34576
C          1.36143         6.32746        -1.19034
C          1.31939         7.74039        -1.09452
C          2.51967         5.61013        -0.93254
C          2.40857         8.47612        -0.66552
C          1.24505        10.66300        -0.91851
C          1.21176        12.07483        -0.88145
C          2.39978         9.91776        -0.69423
C          2.33884        12.85326        -0.64311
C          1.13718        15.06586        -0.59195
C          1.15466        16.48998        -0.45340
C          2.28307        14.28851        -0.48971
C          2.33576        17.21044        -0.44150
C          2.44227        18.64110        -0.34347
C          3.81802         1.98902        -0.87230
C          3.80604         3.44351        -0.83572
C          5.05148         1.28553        -0.73887
C          4.92031         4.15321        -0.44122
C          3.70171         6.29072        -0.49766
C          3.58843         7.73901        -0.05989
C          4.90988         5.60397        -0.33133
C          4.90031         8.49604        -0.10626
C          3.68898        10.62775        -0.58916
C          3.65153        12.16481        -0.57645
C          4.89452         9.90471        -0.09594
C          4.82491        12.84390        -0.04177
C          3.53309        15.01679        -0.14176
C          3.59127        16.44010        -0.59016
C          4.81834        14.29976         0.13257
C          4.90172        17.14205        -0.65423
C          3.64697        19.29467        -0.34330
C          4.92186        18.61994        -0.50162
C          6.23536         1.95488        -0.42806
C          6.14681         3.40240        -0.10456
C          7.47518         1.28598        -0.30471
C          7.41578         4.17740         0.05842
C          6.15458         6.33175        -0.09942
C          6.12485         7.79643         0.00004
C          7.35925         5.65185        -0.04902
C          7.31515         8.53444         0.23453
C          6.06610        10.62501         0.25071
C          5.99578        12.10139         0.39341
C          7.27465         9.92644         0.47100
C          7.28938        12.91034         0.61355
C          6.11207        15.02787         0.00843
C          6.14905        16.39848        -0.33610
C          7.32162        14.32248         0.16363
C          7.37025        17.07542        -0.44134
C          6.12193        19.26387        -0.52197
C          7.38834        18.52442        -0.88342
C          8.69359         1.98185        -0.12403
C          8.70508         3.48335        -0.38156
C          9.91061         1.33213         0.06335
C          9.90048         4.14309         0.29649
C          8.64615         6.36451         0.02037
C          8.62612         7.84613         0.20671
C          9.86971         5.62291         0.47199
C          9.80905         8.46187         0.96846
C          8.53961        10.63587         0.81840
C          8.58197        12.16358         0.77889
C          9.83618         9.95325         0.68061
C          9.85167        12.79840         0.39590
C          8.55445        14.96795        -0.05109
C          8.59002        16.36517        -0.29976
C          9.79959        14.17252        -0.13248
C          9.85018        17.07459        -0.34965
C          8.65235        19.22409        -0.47688
C          9.85679        18.52229        -0.36580
C         11.18206         2.01434         0.08831
C         11.20349         3.46946         0.14994
C         12.36695         1.29776         0.18440
C         12.37108         4.20322         0.21706
C         11.15241         6.35955         0.52662
C         11.13067         7.75946         0.68446
C         12.37959         5.65243         0.43849
C         12.33283         8.46829         0.84271
C         11.01152        10.65968         0.69296
C         11.05599        12.10109         0.48900
C         12.26981         9.94273         1.02186
C         12.33957        12.78426         0.32593
C         11.10526        14.89951        -0.32895
C         11.07565        16.38157        -0.30591
C         12.36362        14.18516         0.00421
C         12.29293        17.08126        -0.31282
C         11.10663        19.20611        -0.27063
C         12.32760        18.51251        -0.27028
C         13.65613         1.96557         0.01987
C         13.64176         3.49238        -0.01794
C         14.93194         1.27857         0.31005
C         14.92313         4.21715         0.27271
C         13.59048         6.38407         0.55673
C         13.57944         7.78096         0.79525
C         14.89935         5.68879         0.50224
C         14.83823         8.48777         1.00059
C         13.54843        10.72017         1.02966
C         13.57212        12.11699         0.52926
C         14.82961         9.95473         1.15524
C         14.82065        12.75898         0.26757
C         13.56487        14.87386        -0.10569
C         13.54066        16.31663        -0.44361
C         14.82662        14.17462        -0.05176
C         14.82854        17.08835        -0.39639
C         13.58575        19.21153        -0.19584
C         14.81344        18.55874        -0.19747
C         16.08722         1.95841         0.64702
C         16.01848         3.42561         0.91587
C         17.33916         1.30632         0.81992
C         17.20641         4.17178         1.43031
C         16.10442         6.36099         1.06108
C         16.05960         7.81855         1.10299
C         17.24980         5.65937         1.32971
C         17.32122         8.52148         1.09832
C         16.12472        10.70902         0.94242
C         16.07865        12.09236         0.42580
C         17.35438         9.91905         0.78212
C         17.30909        12.71130         0.10556
C         16.03176        14.85315        -0.24049
C         16.05691        16.31918        -0.06486
C         17.27910        14.07470        -0.58544
C         17.32832        17.09355        -0.02740
C         16.06122        19.24123        -0.09673
C         17.30029        18.58169        -0.09425
C         18.52253         1.97786         1.19340
C         18.48183         3.40219         1.61763
C         19.76022         1.32039         1.15304
C         19.79833         4.17289         1.65517
C         18.49809         6.38545         1.81435
C         18.53185         7.80421         1.29075
C         19.78755         5.63534         1.52806
C         19.76218         8.43780         1.08622
C         18.54126        10.59733         0.50091
C         18.52868        11.99271         0.21028
C         19.83606         9.81672         0.46858
C         19.83299        12.69653         0.07366
C         18.59897        14.87802        -0.47419
C         18.58649        16.39097        -0.40171
C         19.88294        14.18463        -0.12190
C         19.86398        17.14261        -0.19133
C         18.52986        19.26120         0.03430
C         19.78060        18.59945         0.11697
C         21.00670         2.01847         1.19566
C         21.02823         3.43913         1.33381
C         22.22000         1.33457         0.95155
C         22.23677         4.16231         1.18065
C         21.00324         6.31370         1.37453
C         20.99711         7.76396         1.22702
C         22.23434         5.58306         1.28540
C         22.22046         8.49481         1.09096
C         20.94085        10.62019         1.17757
C         21.05499        12.01657         0.59759
C         22.26086         9.88665         1.07036
C         22.19214        12.83676         1.10284
C         21.08452        14.95553         0.34277
C         21.09502        16.40356         0.19226
C         22.19492        14.29379         0.84095
C         22.22387        17.15057         0.47642
C         20.97814        19.29118         0.28826
C         22.22683        18.60175         0.36618
C         23.44720         2.02772         0.81610
C         23.45860         3.45519         0.93699
C         24.63604         1.34109         0.44232
C         24.69762         4.15938         0.80470
C         23.52203         6.29326         1.26295
C         23.51849         7.78697         1.15476
C         24.76031         5.57510         0.90592
C         24.68754         8.48871         0.48984
C         23.51230        10.59866         1.13845
C         23.49663        12.07071         1.37418
C         24.71805         9.93250         0.96090
C         24.73334        12.83305         1.25468
C         23.40548        15.02746         1.27848
C         23.44670        16.51740         1.01129
C         24.71683        14.29146         1.37852
C         24.74198        17.18245         0.73831
C         23.44301        19.28003         0.39527
C         24.69892        18.58774         0.42954
C         25.85757         2.01817         0.22860
C         25.89715         3.42701         0.58565
C         26.86918         1.39142        -0.55606
C         27.09615         4.15738         0.67913
C         25.97614         6.28912         0.72467
C         25.99819         7.74822         0.66052
C         27.18179         5.55073         0.60118
C         27.18800         8.43718         0.58091
C         26.01402        10.59424         1.14131
C         26.01384        12.15149         1.23989
C         27.20565         9.90477         0.57020
C         27.21513        12.88986         0.80974
C         26.02695        15.05150         1.09884
C         25.94915        16.48075         0.70347
C         27.23580        14.27010         0.71260
C         27.15689        17.14270         0.30650
C         25.89406        19.26454         0.17770
C         27.12446        18.56496         0.09103
C         27.92644         2.09203        -1.21354
C         28.44776         3.28987        -0.67097
C         28.41515         1.71004        -2.50556
C         29.04568         4.32734        -1.44347
C         28.57435         6.15112         0.38389
C         28.48332         7.66675         0.76538
C         29.17370         5.70539        -1.01744
C         29.13822         8.81301        -1.29415
C         28.27492        10.66543         0.11911
C         28.42220        12.08695         0.53868
C         29.33587        10.07212        -0.66483
C         29.68832        12.82783         0.13012
C         28.41962        14.98374         0.26752
C         28.37103        16.42461         0.10799
C         29.60245        14.29286        -0.04034
C         29.54528        17.12695        -0.28818
C         28.31127        19.25208        -0.22923
C         29.51900        18.55794        -0.41557
C         29.21556         2.57773        -3.20802
C         29.50171         3.90100        -2.73550
C         30.26806         4.78957        -3.52434
C         29.95217         6.53788        -1.84420
C         30.22487         7.95837        -1.53022
C         30.52339         6.05993        -3.05603
C         31.52652         8.49375        -1.45724
C         30.63195        10.65820        -0.76650
C         30.76710        12.08852        -0.55849
C         31.71152         9.84829        -1.19280
C         31.83318        12.81748        -1.05865
C         30.76377        14.97407        -0.54010
C         30.76097        16.43028        -0.58357
C         31.85629        14.22699        -0.99353
C         31.90631        17.16226        -0.92139
C         30.71004        19.25856        -0.76392
C         31.88139        18.56709        -0.99828
O         25.57765        14.78549         2.46136
O         10.41434        14.30402        -1.47958
O          6.72675         3.67105         1.23398
O         15.28175         5.10563        -0.82606
O          6.40096        12.65950         1.72013
O          9.63596         4.71770         1.60827
O          4.25350        16.64797        -1.88675
O         23.75955         7.19168         2.44970
O         16.14137         3.71316         2.35365
O         28.29769         3.43507         0.70957
O         15.58210        10.48146         2.29617
O         29.38473         8.13141         1.44430
O          8.94438         7.28416        -1.09737
O          3.99508        11.39323        -1.80432
O         16.71707        16.63381         1.23365
O          8.55940        11.44061         2.04002
O         13.70454         2.74284        -1.25865
O         29.49125        12.33428         1.50855
O          9.52974         8.32451         2.33157
O         26.22370        11.25586         2.41297
O          3.94857        14.80830         1.25026
O         12.79098        10.50262         2.27694
O         23.22002        15.98111         2.36408
O         22.58486        12.50614         2.46974
O         14.28495        16.65767        -1.68097
O         19.53152        14.47387        -1.52265
O         20.84239        12.08307        -0.84308
O          8.83585         3.65547        -1.76460
O         19.29012        16.94628        -1.54651
O         19.11504         3.67353         2.89826
O         20.55567        10.72562         2.56061
H         21.27043        11.21205         3.03693
O          2.68878         4.18152        -2.81662
H          2.80890         3.25495        -3.11571
O         18.40809         6.44540         3.27090
H         18.45454         5.51601         3.59889
O         24.39210         8.48342        -0.94063
H         25.15617         8.88092        -1.40943
O         20.18978         9.55526        -0.91009
H         20.36636        10.42666        -1.34369
O          7.42666        18.51264        -2.36166
H          8.18523        17.95253        -2.63301
O         29.47888         5.60319         1.35352
H         29.96673         6.36825         1.74588
O         27.89249         8.43760        -1.73599
H         27.97206         7.57168        -2.19098
O         17.12054        13.75449        -2.00120
H         18.02916        13.70797        -2.38470
O          3.27930         7.68068         1.38387
H          2.48944         7.10958         1.49330
H          0.43528         1.42873        -0.88366
H          0.35091         3.87772        -1.05125
H          2.60626         0.20002        -0.99255
H          0.47486         5.81394        -1.58561
H          0.41503         8.24787        -1.45763
H          0.28553        10.14512        -1.05209
H          0.23333        12.56364        -0.98764
H          0.16416        14.58502        -0.76796
H          0.19248        17.02077        -0.40608
H          1.51349        19.22385        -0.25006
H          5.05917         0.19370        -0.87902
H          3.66289        20.39124        -0.25412
H          7.49365         0.18957        -0.41954
H          6.16821        20.35813        -0.40860
H          9.91933         0.23650         0.18990
H          8.67345        20.32447        -0.50292
H         12.34302         0.20829         0.33862
H         11.10811        20.30590        -0.25123
H         14.96079         0.18223         0.21448
H         13.56167        20.30765        -0.10374
H         17.40408         0.23303         0.58608
H         16.04896        20.34000        -0.03591
H         19.77748         0.24597         0.91713
H         18.51735        20.35909         0.11122
H         22.20348         0.24202         0.82626
H         20.96998        20.38746         0.37771
H         24.57286         0.26583         0.21610
H         23.45199        20.37524         0.29526
H         26.63194         0.38284        -0.93324
H         25.87834        20.34684        -0.01661
H         28.12569         0.73962        -2.93256
H         28.28477        20.34332        -0.36352
H         29.60582         2.28818        -4.19417
H         30.66198         4.45842        -4.49517
H         31.13494         6.75380        -3.64941
H         32.39009         7.84610        -1.66056
H         32.72528        10.26793        -1.23083
H         32.67463        12.30357        -1.54392
H         32.74290        14.73933        -1.38933
H         32.85354        16.64612        -1.12672
H         30.68034        20.35445        -0.84389
H         32.80103        19.10865        -1.25946
