         210
 CSIRO Nanostructure Databank - Neutral Graphene Oxide Data Set
C         30.41856        31.74025         0.96283
C         30.49814        32.98138         0.75374
C         30.46758        36.07481         0.69568
C         30.48994        37.32423         0.73009
C         30.52883        40.43178         0.74695
C         30.45950        41.68155         0.72879
C         32.87995        29.01514         1.37394
C         31.75107        29.55845         1.33432
C         32.82725        31.64935         0.79793
C         31.57560        30.93722         1.05386
C         32.82902        33.06405         0.51937
C         31.59498        33.81589         0.52171
C         32.78700        35.97577         0.25453
C         31.59711        35.24223         0.46466
C         32.81416        37.40484         0.28480
C         31.61320        38.16122         0.52827
C         32.83512        40.30202         0.28385
C         31.62790        39.56818         0.53552
C         32.82583        41.74171         0.24413
C         31.59156        42.49505         0.46020
C         32.85184        44.42893         0.07344
C         31.74674        43.89107         0.34784
C         35.60067        27.49854         1.42929
C         35.39107        28.86901         1.13869
C         34.16018        29.55455         1.12545
C         35.31359        31.65862         0.55284
C         34.08802        30.96153         0.82289
C         35.28207        33.07224         0.28628
C         34.04884        33.76347         0.27721
C         35.28931        35.96771        -0.00848
C         34.00192        35.20375        -0.21460
C         35.28515        37.38182         0.01009
C         34.04070        38.13064         0.10376
C         35.28336        40.26731        -0.14846
C         34.04994        39.54986         0.08733
C         35.26188        41.66801        -0.26438
C         34.05730        42.42556        -0.04878
C         35.33131        44.55562        -0.43075
C         34.11097        43.85661        -0.15702
C         35.50921        45.94647        -0.56601
C         37.94849        27.43015         1.05137
C         36.69097        26.88564         1.40841
C         37.86481        28.82920         0.74456
C         36.61649        29.54081         0.80606
C         37.77132        31.64244         0.23477
C         36.55768        30.94786         0.53001
C         37.72227        33.05396        -0.00156
C         36.51881        33.77981         0.03834
C         37.72462        35.96984        -0.05965
C         36.51153        35.24241        -0.04506
C         37.75171        37.38867        -0.00594
C         36.51895        38.10569        -0.01626
C         37.77868        40.19966        -0.26925
C         36.53765        39.53356        -0.16816
C         37.81943        41.60544        -0.69179
C         36.48355        42.37965        -0.68482
C         37.79542        44.50987        -0.84411
C         36.55236        43.84836        -0.61708
C         37.84842        45.92937        -1.02862
C         36.59438        46.52143        -0.85870
C         40.47222        24.68490         1.11265
C         39.42153        25.37437         1.22384
C         40.37268        27.38575         0.49582
C         39.17677        26.72957         0.95616
C         40.31492        28.79617         0.23144
C         39.07000        29.51647         0.37353
C         40.25122        31.62005        -0.05961
C         39.01391        30.91968         0.15501
C         40.26316        33.03373        -0.11177
C         38.98677        33.75165        -0.29505
C         40.24158        35.96938         0.06381
C         38.99569        35.26553        -0.27909
C         40.24413        37.36542         0.16395
C         39.00611        38.09494         0.03633
C         40.25745        40.23916         0.01483
C         39.02026        39.51288        -0.05562
C         40.28984        41.68175        -0.17392
C         39.06599        42.38813        -0.56181
C         40.27493        44.55034        -0.42885
C         39.04458        43.75945        -0.73661
C         40.30639        46.02928        -0.65498
C         39.12159        46.56618        -1.49269
C         40.36431        48.63584        -1.35613
C         39.26589        48.06714        -1.43321
C         42.94318        24.68106         0.29835
C         41.66198        25.22511         0.60068
C         42.71865        27.34035        -0.27856
C         41.59131        26.64990         0.28715
C         42.73046        28.75112        -0.38124
C         41.51073        29.48140        -0.12581
C         42.68745        31.65633        -0.32088
C         41.48330        30.91653        -0.18364
C         42.70710        33.04681        -0.11389
C         41.47613        33.73739        -0.01639
C         42.76761        35.94798         0.43757
C         41.44416        35.18409         0.31017
C         42.72676        37.41220         0.31274
C         41.49388        38.09168         0.26347
C         42.72143        40.22069         0.33048
C         41.48365        39.52816         0.20250
C         42.68591        41.69045         0.46166
C         41.47122        42.38495        -0.00158
C         42.78535        44.59047         0.06432
C         41.59853        43.81380        -0.47533
C         42.70524        46.09847         0.22152
C         41.59501        46.78185        -0.57633
C         42.89170        48.80766        -0.62490
C         41.62971        48.15418        -0.85910
C         43.86240        25.18942        -0.36661
C         45.17554        27.35553        -1.10832
C         43.90046        26.58843        -0.78813
C         45.19079        28.83274        -0.89302
C         43.95565        29.46783        -0.69126
C         45.21909        31.72080        -0.79704
C         43.90873        30.94011        -0.74461
C         45.24401        33.12896        -0.36433
C         44.01295        33.73543         0.25653
C         45.20620        35.94801         0.09700
C         44.01231        35.23938         0.15226
C         45.20174        37.38986         0.24934
C         43.97005        38.10986         0.29845
C         45.21584        40.24957         0.48207
C         43.95786        39.54308         0.37869
C         45.25695        41.70685         0.56836
C         43.97051        42.45430         0.59471
C         45.20402        44.63376         0.50759
C         43.97424        43.92887         0.33989
C         45.24090        46.05438         0.37748
C         44.08456        46.77949         0.10846
C         43.87127        48.11757        -0.23115
C         47.51062        27.45605        -0.73130
C         46.51462        26.76358        -0.99358
C         47.73748        28.86248        -0.77934
C         46.45058        29.56128        -0.85182
C         47.70274        31.71281        -0.72064
C         46.47836        30.96390        -0.77237
C         47.67367        33.11171        -0.65444
C         46.44325        33.81989        -0.38154
C         47.65839        35.97483        -0.04997
C         46.46923        35.25952        -0.09491
C         47.67980        37.37916         0.24149
C         46.43222        38.09132         0.34588
C         47.70769        40.22089         0.51669
C         46.40889        39.51825         0.46652
C         47.74019        41.70444         0.68886
C         46.43372        42.40125         0.70686
C         47.58171        44.51732         1.51669
C         46.52770        43.89356         0.52879
C         47.58913        45.99195         1.12391
C         46.57472        46.52310         0.65773
C         50.24802        28.99554        -0.55742
C         48.94752        29.53983        -0.75799
C         50.12305        31.71808        -1.15089
C         48.97219        30.99917        -0.87296
C         50.20589        33.22037        -1.09384
C         48.97543        33.83159        -0.39050
C         50.20433        35.94865         0.05285
C         48.94092        35.36451        -0.57525
C         50.16468        37.30439         0.49714
C         48.92771        38.01420         0.50155
C         50.15384        40.16609         1.30685
C         48.89113        39.42081         0.95179
C         50.19137        41.66850         1.32176
C         48.96972        42.39142         1.20256
C         50.16603        44.30928         1.71861
C         48.89911        43.79479         1.42601
C         51.40787        29.33576        -0.20929
C         52.64503        31.57254         0.13414
C         52.03015        30.55653        -0.58627
C         52.38147        32.81865        -0.06975
C         51.43034        33.77712        -0.28867
C         52.48822        35.89918         0.61490
C         51.38408        35.14527         0.09807
C         52.49248        37.10822         0.91057
C         51.38327        38.00766         0.92712
C         52.50301        40.23230         1.46985
C         51.41368        39.36190         1.22051
C         52.57442        41.46791         1.64333
C         51.43702        42.34536         1.59752
C         51.29055        43.73220         1.77473
O         44.29750        26.88940        -2.14134
O         51.25671        31.11600        -1.72215
O         43.17409        42.15092         1.80176
O         37.07104        41.85279        -1.92301
O         49.25231        39.63210         2.35951
O         39.97857        45.47417         0.67496
O         42.06139        35.43331         1.64083
O         47.99210        41.08006        -0.64877
O         39.00259        34.51808        -1.55856
O         44.41916        31.48283        -2.01829
O         50.36104        33.65605        -2.45906
H         50.96130        33.01691        -2.90341
O         41.85803        43.72313        -1.92513
H         42.68859        43.22045        -2.06326
O         49.22098        33.59150         1.02799
H         48.42243        33.86198         1.52916
O         33.86078        35.09979        -1.68021
H         33.02837        34.61596        -1.86795
O         39.37388        46.14404        -2.83368
H         38.61405        46.39732        -3.39760
O         47.08715        44.39442         2.83705
H         47.75038        44.74390         3.46731
O         47.06456        44.06922        -0.81591
H         47.56810        43.26679        -1.07446
O         44.12989        33.46459         1.70853
H         43.42949        34.01407         2.13920
O         48.91008        35.75166        -1.96698
H         49.62554        35.27635        -2.45036
O         42.34215        46.30947         1.62949
H         41.41044        45.98815         1.73150
