         404
 CSIRO Nanostructure Databank - Neutral Graphene Oxide Data Set
C          2.11990         2.35349        -3.33521
C          2.01620         3.70840        -3.16830
C          3.35781         1.67561        -3.20762
C          3.21470         4.54486        -3.05117
C          1.85493         6.61440        -2.56274
C          1.70343         7.88021        -2.00735
C          3.07384         5.91684        -2.47666
C          2.77493         8.53202        -1.35651
C          1.35101        10.40736        -0.51810
C          1.23450        11.59233         0.20129
C          2.62489         9.85579        -0.76384
C          2.38743        12.31004         0.54542
C          1.24329        15.39540         0.79819
C          1.32030        16.70497         0.35367
C          2.40162        14.60448         0.83381
C          2.57808        17.25608         0.03273
C          2.65457        18.66060        -0.25597
C          4.56657         2.32188        -2.91914
C          4.57894         3.82163        -2.95580
C          5.63758         1.49359        -2.44997
C          5.63576         4.58475        -2.22974
C          4.15806         6.53865        -1.80781
C          4.02308         7.86337        -1.27775
C          5.39458         5.82581        -1.63446
C          5.15245         8.54633        -0.69020
C          3.78508        10.58467        -0.36772
C          3.67879        11.91256         0.15632
C          5.05409         9.91472        -0.33876
C          4.86846        12.76456         0.27886
C          3.66795        15.04476         0.37986
C          3.75877        16.44815         0.05732
C          4.84158        14.18733         0.27090
C          5.02197        17.09987        -0.14488
C          3.86006        19.28271        -0.38237
C          5.07185        18.52148        -0.27823
C          6.97872         1.90656        -2.34503
C          6.94201         4.02505        -2.15413
C          8.02529         1.40022        -1.55940
C          7.93339         4.38916        -1.23347
C          6.41916         6.40609        -0.74027
C          6.37594         7.85998        -0.45411
C          7.67238         5.63475        -0.46589
C          7.47943         8.53181         0.08155
C          6.18917        10.61656         0.16205
C          6.12609        12.03619         0.32698
C          7.42062         9.92639         0.35964
C          7.34866        12.70332         0.57094
C          6.11204        14.87873        -0.09072
C          6.24260        16.36571        -0.15626
C          7.39620        14.09158         0.12551
C          7.49104        17.02589        -0.26057
C          6.30869        19.17115        -0.22717
C          7.53642        18.47636        -0.15965
C          9.15008         2.17006        -1.10885
C          9.09500         3.61772        -0.99581
C         10.19546         1.44551        -0.44277
C         10.10050         4.19881        -0.04108
C          8.87642         6.38648         0.00653
C          8.77137         7.83814         0.28704
C          9.94042         5.53177         0.62956
C          9.84942         8.48785         1.07130
C          8.58818        10.62085         0.82979
C          8.54207        12.01995         0.93033
C          9.80727         9.90825         1.17276
C          9.72021        12.78851         1.43342
C          8.71189        14.78849         0.16931
C          8.74732        16.22577        -0.21941
C          9.77079        14.25376         1.08897
C         10.07437        16.85498        -0.08727
C          8.66836        19.30757         0.16254
C         10.02575        18.96957         0.00964
C         11.34728         2.04324         0.12138
C         11.43031         3.49832        -0.18378
C         12.36478         1.39151         0.82132
C         12.37099         4.19275         1.99426
C         10.91029         6.22477         1.63892
C         10.98056         7.72883         1.43721
C         12.27977         5.58133         1.78168
C         12.12968         8.40102         1.93234
C         10.91774        10.58197         1.75368
C         10.99109        12.08577         1.87897
C         11.92680         9.76441         2.26534
C         12.30131        12.86466         1.78047
C         11.05153        15.02082         1.25541
C         11.15919        16.35700         0.59624
C         12.30720        14.25932         1.47933
C         12.36618        17.13498         0.72722
C         11.18021        19.39411         0.66253
C         12.38259        18.58412         0.67261
C         13.54883         2.05959         1.32384
C         13.57746         3.46626         1.68296
C         14.75811         1.35936         1.31528
C         14.78509         4.18816         1.67406
C         13.48880         6.35852         1.81962
C         13.42944         7.75779         2.01845
C         14.76296         5.64239         1.79423
C         14.69838         8.54778         2.16255
C         13.77574        10.84805         2.27112
C         13.57625        12.22131         1.83904
C         14.75475        10.01623         1.83989
C         14.78350        12.88438         1.53791
C         13.52231        14.98550         1.29208
C         13.55742        16.41585         1.04592
C         14.77570        14.30305         1.37822
C         14.80344        17.10222         1.04237
C         13.61429        19.24123         0.82600
C         14.83466        18.53248         0.91390
C         16.00475         2.03442         1.44739
C         16.01450         3.46869         1.56253
C         17.22899         1.34311         1.37444
C         17.25542         4.15050         1.59992
C         15.96364         6.33462         1.80775
C         16.00636         7.80377         1.97966
C         17.23772         5.59934         1.82134
C         17.19848         8.54488         1.46081
C         15.88517        10.64076         1.05289
C         16.00331        12.12603         1.35810
C         17.19460         9.89473         1.18819
C         17.22479        12.77093         1.29157
C         16.00595        14.98717         1.31655
C         16.03890        16.39197         1.16534
C         17.26396        14.23762         1.66625
C         17.28681        17.08419         1.07464
C         16.07805        19.20482         0.87008
C         17.29816        18.49971         0.90315
C         18.46564         2.03104         1.31830
C         18.47322         3.47081         1.40257
C         19.68495         1.33683         1.15672
C         19.70628         4.18698         1.17281
C         18.52839         6.35155         1.51598
C         18.37711         7.75712         1.06337
C         19.71436         5.59941         1.08449
C         19.64129         8.47386         0.61623
C         18.43098        10.61854         0.92051
C         18.45434        12.05039         1.04453
C         19.64776         9.93418         0.73274
C         19.70019        12.72643         0.99474
C         18.50782        14.95767         1.23180
C         18.52589        16.33949         1.07486
C         19.75051        14.17918         1.26193
C         19.77043        17.04967         0.82330
C         18.54525        19.18090         0.73035
C         19.74979        18.48901         0.66099
C         20.91035         2.02273         0.96900
C         20.90818         3.46229         0.91998
C         22.12487         1.32410         0.79090
C         22.11437         4.16285         0.62414
C         20.89558         6.31059         0.71184
C         20.91064         7.73285         0.61785
C         22.10866         5.58744         0.51566
C         22.11773         8.44645         0.41699
C         20.89260        10.61636         0.61205
C         20.91029        12.04015         0.71498
C         22.10443         9.88784         0.38012
C         22.14066        12.74931         0.41749
C         21.04818        14.92228         0.99530
C         20.97923        16.36641         0.71547
C         22.19653        14.16531         0.48694
C         22.21618        17.05479         0.45497
C         20.98908        19.17528         0.43237
C         22.19587        18.50547         0.34833
C         23.33668         2.00679         0.52319
C         23.32316         3.43843         0.41719
C         24.56180         1.31664         0.35990
C         24.52566         4.13729         0.08842
C         23.32469         6.29699         0.25579
C         23.33704         7.73517         0.23092
C         24.51530         5.56760         0.05732
C         24.55449         8.45727        -0.03755
C         23.30073        10.59529         0.06481
C         23.28145        12.00584        -0.00274
C         24.53235         9.87438        -0.17691
C         24.39803        12.71264        -0.72164
C         23.39499        14.89108         0.15871
C         23.41908        16.34848         0.36102
C         24.44103        14.18113        -0.42412
C         24.66207        17.16241         0.56230
C         23.42761        19.22308         0.07491
C         24.64151        18.59555         0.07011
C         25.74648         1.99574        -0.00682
C         25.70774         3.40537        -0.19529
C         26.99119         1.29287        -0.11409
C         26.84185         4.11721        -0.89217
C         25.79453         6.29365         0.00613
C         25.78741         7.75741        -0.15752
C         27.03268         5.52738        -0.34993
C         26.97676         8.43995        -0.49130
C         25.73820        10.56630        -0.51478
C         25.75014        12.01029        -0.66345
C         26.93619         9.84347        -0.68610
C         26.94473        12.68457        -0.88849
C         25.67453        14.88783        -0.79971
C         25.61474        16.15226        -1.50692
C         26.99972        14.16017        -0.89478
C         26.78441        16.85017        -1.69805
C         25.93254        19.30191        -0.07062
C         26.92862        18.96706        -0.96293
C         28.19589         1.93616        -0.43572
C         28.16295         3.34055        -0.91810
C         29.44178         1.30013        -0.31718
C         29.45838         4.10845        -0.95743
C         28.25212         6.28444        -0.72322
C         28.23462         7.70539        -0.68230
C         29.45456         5.58854        -0.88659
C         29.44985         8.39272        -0.83302
C         28.15332        10.50532        -1.29585
C         28.19224        12.01298        -1.13882
C         29.44227         9.89404        -0.71943
C         29.37201        12.72024        -1.35857
C         28.17495        14.88501        -1.41590
C         28.08100        16.27701        -1.55732
C         29.41808        14.16425        -1.50443
C         29.28566        17.09805        -1.85479
C         28.31495        19.30504        -0.88005
C         29.37374        18.54147        -1.41398
C         30.68623         1.99736        -0.42169
C         30.71541         3.41215        -0.64017
C         31.90590         1.32319        -0.21857
C         31.92522         4.13319        -0.63471
C         30.69694         6.28268        -0.89576
C         30.68675         7.70810        -0.90225
C         31.93671         5.56964        -0.80388
C         31.94061         8.42663        -0.93501
C         30.67291        10.51740        -1.33382
C         30.65235        11.99609        -1.56849
C         31.95530         9.83732        -1.08835
C         31.92901        12.72895        -1.46637
C         30.62565        14.84383        -1.73426
C         30.58266        16.30833        -2.00300
C         31.90337        14.15391        -1.58985
C         31.88391        17.05886        -1.98186
C         30.64914        19.14368        -1.35260
C         31.87506        18.49466        -1.61669
C         33.13971         2.01566        -0.24347
C         33.15764         3.43662        -0.45317
C         34.35774         1.33129        -0.01785
C         34.39894         4.13558        -0.51091
C         33.16368         6.28206        -0.78194
C         33.16940         7.71559        -0.87451
C         34.41070         5.58051        -0.68231
C         34.40071         8.44412        -0.86373
C         33.15269        10.57318        -1.11546
C         33.13511        12.02040        -1.26452
C         34.38728         9.87469        -0.93521
C         34.36983        12.73893        -1.13439
C         33.13367        14.84902        -1.53783
C         33.17204        16.30344        -1.79696
C         34.35448        14.17260        -1.23854
C         34.38850        17.05614        -1.44816
C         33.08206        19.17119        -1.45776
C         34.35484        18.50847        -1.42608
C         35.58588         2.01177        -0.05082
C         35.59757         3.40730        -0.36729
C         36.79059         1.34839         0.36360
C         36.88691         4.08358        -0.54636
C         35.62091         6.30597        -0.72293
C         35.63835         7.73417        -0.76606
C         36.89894         5.56903        -0.72686
C         36.86870         8.47712        -0.62987
C         35.60993        10.60663        -0.84229
C         35.59423        12.04766        -0.91243
C         36.82965         9.90006        -0.69128
C         36.80712        12.79164        -0.71620
C         35.55991        14.91395        -1.03808
C         35.54103        16.35162        -1.14445
C         36.78618        14.22828        -0.74171
C         36.81111        17.09018        -1.04641
C         35.51016        19.24733        -1.19236
C         36.81705        18.60405        -1.11169
C         37.99261         2.02268         0.53208
C         38.14197         3.38982        -0.01909
C         39.11086         1.43613         1.18963
C         39.24093         4.23597         0.50257
C         38.15761         6.33752        -0.31223
C         38.07156         7.80910        -0.22365
C         39.21611         5.62232         0.41227
C         39.21667         8.50652         0.19092
C         38.08014        10.66401        -0.64005
C         38.03496        12.12697        -0.47652
C         39.35254         9.92548        -0.15561
C         39.21959        12.83891        -0.14778
C         37.98381        14.93528        -0.45150
C         37.92842        16.40683        -0.33997
C         39.19491        14.27760        -0.13579
C         39.15092        17.20436        -0.01069
C         38.01657        19.32952        -0.63890
C         39.16212        18.67034        -0.28074
C         40.24701         2.18452         1.46787
C         40.30789         3.57008         1.20396
C         41.45929         4.35060         1.58958
C         40.11731         6.42388         1.33357
C         40.26317         7.87835         0.93147
C         41.41749         5.70497         1.58690
C         41.29707         8.65803         1.43572
C         40.42060        10.72032         0.45486
C         40.41666        12.15547         0.26559
C         41.35859        10.05627         1.23275
C         41.56100        12.91185         0.56631
C         40.39647        15.02078         0.16706
C         40.42950        16.47546         0.12761
C         41.55766        14.30227         0.49224
C         41.58835        17.22133         0.20303
C         40.41453        19.35562        -0.07582
C         41.56671        18.65172         0.14918
O         20.65098        14.55260         2.36907
O         25.57484        16.79051         1.29239
O          6.58643         5.56935         0.50362
O         10.26697        17.93175        -0.93452
O         26.58518        14.82323         0.36079
O         37.17029        17.75241        -2.29652
O         26.72420         5.74555         1.05829
O          2.24079        13.36411         1.45832
O         38.15177        16.86896         1.04002
O         18.67715         7.92051        -0.36231
O          9.39576         4.32451         1.25326
O          9.07024        15.13467        -1.20754
O         26.61373        18.18801        -2.11100
O         15.53753         8.21213         3.32187
O          4.13511         4.44300        -4.19392
O         30.57312        11.02578        -2.70569
O         10.00490        15.05174         2.29657
O         37.88776         5.95636        -1.71316
O         28.84160         3.53999        -2.20170
O         37.83112         3.42401        -1.44576
O         39.11211        10.21095        -1.56952
O         32.69365        16.71307        -3.14632
O         12.36654         4.03699        -0.75372
O         10.01543        12.57347         2.85207
O          6.78312        14.21074        -1.20368
O         29.80690        16.75362        -3.17637
O          7.27853         3.06813        -3.10573
O         18.13937         6.08918         2.89007
O          9.36367         7.31500        -1.00665
O         12.82407        10.34407         3.16073
O         29.51555        10.22826         0.69441
H         28.79040         9.75787         1.15784
O         17.31532        14.23706         3.14668
H         17.55637        15.14281         3.43645
O         10.24889         6.04190         2.93499
H          9.33378         6.38990         2.87598
O         15.53724        10.52893        -0.37082
H         16.33088        10.76761        -0.89515
O         28.06265        10.19768        -2.70805
H         28.88050        10.55400        -3.13842
O         39.41136         6.47214         2.63551
H         39.42499         5.56306         3.00460
O         24.44943        16.59328        -2.06460
H         24.65212        17.45244        -2.49948
O         24.03834        12.62331        -2.16689
H         23.11637        12.94579        -2.26064
O         11.36555         3.48036         2.51964
H         10.60372         4.07733         2.73088
O         26.39779         4.28147        -2.26754
H         27.18757         4.12364        -2.84009
H          1.20857         1.75340        -3.46914
H          1.02311         4.17187        -3.09147
H          3.34983         0.57622        -3.23455
H          1.00277         6.16787        -3.09277
H          0.73543         8.38808        -2.11450
H          0.44260         9.85619        -0.79463
H          0.25149        11.96002         0.52230
H          0.29462        14.96821         1.14727
H          0.42444        17.34047         0.32140
H          1.71730        19.23259        -0.31372
H          5.37795         0.47124        -2.13379
H          3.92543        20.36757        -0.54572
H          7.93279         0.37641        -1.16638
H          6.32554        20.27093        -0.21958
H         10.08631         0.35173        -0.37597
H          8.43062        20.28903         0.60099
H         12.34558         0.29054         0.87131
H         11.18904        20.34087         1.22152
H         14.76024         0.28544         1.07595
H         13.63910        20.34037         0.80623
H         17.22403         0.24534         1.30154
H         16.09123        20.29892         0.75596
H         19.67819         0.23688         1.13617
H         18.53919        20.27472         0.61039
H         22.12676         0.22557         0.84603
H         20.96755        20.26989         0.31819
H         24.58591         0.22455         0.48822
H         23.35362        20.30033        -0.14277
H         27.01567         0.22878         0.16448
H         26.18623        20.02487         0.72400
H         29.46660         0.23669        -0.03550
H         28.59061        20.20962        -0.31375
H         31.90275         0.23809        -0.03931
H         30.69794        20.19620        -1.03221
H         34.33822         0.25430         0.20448
H         33.05997        20.25356        -1.25912
H         36.71262         0.30260         0.69805
H         35.43763        20.33258        -1.02698
H         39.05512         0.38279         1.49969
H         38.02291        20.42724        -0.72391
H         41.09932         1.70823         1.97402
H         42.37659         3.81972         1.88583
H         42.30449         6.27504         1.89582
H         42.07108         8.20325         2.06816
H         42.16539        10.61544         1.72623
H         42.48992        12.40251         0.85621
H         42.48607        14.83811         0.73024
H         42.56691        16.73178         0.30150
H         40.43694        20.45180        -0.15874
H         42.51937        19.18829         0.26097
