         576
 CSIRO Nanostructure Databank - Neutral Graphene Oxide Data Set
C          6.27162        18.73385        -1.34980
C          6.13026        20.21634        -1.16522
C          5.19919        20.99650        -2.00387
C          6.11729        23.15386        -1.22690
C          5.12618        22.34946        -1.92329
C          6.09572        24.54312        -1.29959
C          8.80783        14.66601        -0.36535
C          8.69877        16.10569        -0.32924
C          7.62998        16.68255        -1.08739
C          8.43161        19.06728         0.57063
C          7.47647        18.06104        -1.51661
C          8.40102        20.36166         0.08629
C          7.15822        21.02849        -0.36598
C          8.40901        23.20608        -0.34102
C          7.24125        22.48594        -0.62369
C          8.41197        24.65623        -0.41291
C          7.19520        25.33938        -0.84587
C          8.36583        27.50784        -0.66903
C          7.18688        26.72552        -0.93875
C          8.46048        28.78852        -1.12886
C         11.29640        10.46915         0.04961
C         11.18498        11.83692         0.34063
C         10.02941        12.56680        -0.04176
C         10.81756        14.63245         1.11250
C          9.84669        13.94290         0.22188
C         10.75573        16.16094         1.22966
C          9.65037        16.83280         0.43541
C         10.88180        18.94403         0.46943
C          9.66419        18.27970         0.52734
C         10.95215        20.36030         0.10185
C          9.66648        21.06165        -0.21438
C         10.82466        23.20840         0.22775
C          9.65301        22.52827        -0.08138
C         10.73078        24.66598         0.44661
C          9.53662        25.36866        -0.05157
C         10.82613        27.55981        -0.01478
C          9.47905        26.86967         0.13621
C         10.89228        28.88279        -0.44975
C          9.77830        29.49167        -1.26920
C         10.91874        31.69781        -1.08398
C          9.73313        30.99215        -1.19587
C         10.96612        33.14736        -1.20436
C         13.35070         6.08080         1.01219
C         13.23261         7.49519         1.53359
C         12.31953         8.33052         0.64709
C         13.64946        10.41819         0.92256
C         12.41902         9.69138         0.48538
C         13.46536        11.85900         1.28410
C         12.29260        12.51632         1.00775
C         13.34080        14.71764         1.80293
C         12.10315        13.91961         1.45188
C         13.34746        16.18244         1.47529
C         12.11808        16.77627         0.86180
C         13.39224        19.00945         0.77704
C         12.16083        18.22905         0.54355
C         13.38265        20.40692         0.67094
C         12.16182        21.13619         0.40358
C         13.30401        23.31495         0.62667
C         12.09414        22.53212         0.40486
C         13.27198        24.67507         0.73354
C         11.99668        25.44089         0.72488
C         13.24439        27.57870         0.39367
C         12.02350        26.89323         0.39323
C         13.30692        28.96313         0.10008
C         12.10938        29.63195        -0.34278
C         13.40862        31.71806        -0.75853
C         12.12270        30.99365        -0.73257
C         13.44071        33.16942        -1.15227
C         12.12352        33.88587        -1.24375
C         13.02114        36.19198        -1.54517
C         12.03935        35.34976        -1.10338
C         13.32683        37.57930        -1.21274
C         15.82328         5.96731         1.19473
C         14.48996         5.38206         0.92446
C         15.87926         7.45562         1.55518
C         14.58160         8.18058         1.79653
C         15.77704        10.39845         1.18501
C         14.61679         9.66028         1.80740
C         15.87484        11.84810         1.58447
C         14.69020        12.53990         1.68455
C         15.95358        14.76424         1.69456
C         14.66943        13.99994         1.92970
C         15.87493        16.12179         1.02090
C         14.61605        16.91489         1.24815
C         15.87872        19.01987         0.94134
C         14.61931        18.28224         1.00074
C         15.82547        20.45875         0.85239
C         14.61756        21.13291         0.76551
C         15.77129        23.28732         1.31887
C         14.64944        22.62339         0.50000
C         15.82511        24.77003         1.03775
C         14.48540        25.47511         1.15962
C         15.76444        27.59474         0.90345
C         14.54134        26.80218         0.39697
C         15.74134        29.07309         0.60437
C         14.53693        29.69209         0.26847
C         15.67364        31.95863         0.50534
C         14.36609        31.19575         0.30190
C         15.93467        33.15757        -0.40038
C         14.70080        33.91436        -0.84275
C         16.09464        35.96394        -1.22701
C         14.93150        35.10004        -1.46160
C         15.93004        37.48448        -1.20664
C         14.57831        38.11855        -1.15946
C         18.22614         6.04617         0.61269
C         17.00560         5.36596         0.59460
C         18.23442         7.48069         0.82800
C         17.07543         8.19540         1.09224
C         18.20215        10.35296         0.70213
C         17.05862         9.65945         0.99342
C         18.36709        11.80393         0.95043
C         17.17766        12.55502         1.53524
C         18.36242        14.67515         1.01898
C         17.19950        14.01800         1.38827
C         18.44377        16.15930         1.19862
C         17.14820        16.91493         1.25746
C         18.35034        19.07258         0.80131
C         17.10567        18.36883         1.00081
C         18.31988        20.48514         0.73469
C         17.07673        21.20397         0.87705
C         18.36613        23.30353         1.25972
C         17.07234        22.57263         1.04289
C         18.29385        24.77796         0.95423
C         17.01278        25.44182         0.87704
C         18.28342        27.66068         0.96565
C         17.06140        26.90856         0.47377
C         18.20100        29.10094         1.04501
C         16.95605        29.76714         0.91777
C         18.19299        32.00189         1.11481
C         16.89776        31.24260         1.00327
C         18.21713        33.45484         0.74575
C         17.05210        34.07309         0.05008
C         18.25216        36.23889         0.07094
C         17.15488        35.35949        -0.39419
C         18.28323        37.67075        -0.31635
C         17.08004        38.27485        -0.69200
C         20.67431         6.04851         0.10242
C         19.43980         5.37522         0.27924
C         20.70972         7.48452         0.15635
C         19.55598         8.21496         0.79020
C         20.59563        10.36647        -0.20140
C         19.39507         9.60968         0.24309
C         20.59590        11.85014        -0.21358
C         19.46078        12.57105         0.30969
C         20.51757        14.74918        -0.27256
C         19.47661        13.96750         0.43694
C         20.73263        16.19904         0.03371
C         19.76648        16.90400         0.97895
C         20.70952        19.09575         0.16297
C         19.57666        18.37478         0.60446
C         20.67865        20.49722         0.05159
C         19.51516        21.23109         0.45712
C         20.64838        23.46175         0.03028
C         19.52201        22.62791         0.58125
C         20.74289        24.83421         0.66250
C         19.47650        25.50776         0.93323
C         20.75085        27.63480         1.39123
C         19.47186        26.95402         1.05848
C         20.73530        29.14374         1.38307
C         19.44131        29.85928         1.17325
C         20.70702        31.99051         1.43061
C         19.45780        31.23482         1.17224
C         20.71948        33.49316         1.16840
C         19.55766        34.05719         0.38021
C         20.79621        36.27654         0.38899
C         19.52068        35.56396         0.50119
C         20.76480        37.66866         0.07696
C         19.52545        38.34164        -0.19375
C         23.10158         6.02252        -0.30178
C         21.86861         5.34074        -0.15752
C         23.10021         7.46377        -0.35465
C         21.87497         8.18736        -0.17024
C         23.02993        10.35572        -0.53046
C         21.88539         9.64719        -0.25837
C         23.01941        11.80132        -0.71106
C         21.75430        12.51219        -0.61156
C         22.93568        14.69046        -1.25757
C         21.67994        13.95923        -0.88373
C         22.81452        16.23267        -1.37098
C         21.83029        16.87464        -0.39545
C         22.97823        19.06127        -0.99691
C         22.02584        18.34659         0.00774
C         23.10039        20.57707        -0.78768
C         21.86784        21.28981        -0.34291
C         23.15748        23.38422        -0.09256
C         21.96806        22.71698         0.03382
C         23.08866        24.90451        -0.15083
C         21.92845        25.49899         0.62635
C         23.17050        27.67592         0.55191
C         22.08421        26.86428         1.26760
C         23.17272        29.16966         0.63819
C         21.99360        29.89388         1.16199
C         23.19558        32.05154         1.16030
C         22.00844        31.29593         1.26844
C         23.18735        33.50733         1.64035
C         21.99128        34.20849         1.03610
C         23.25614        36.28001         0.53903
C         22.00742        35.56344         0.63504
C         23.23857        37.65906         0.14779
C         22.00812        38.33678        -0.04068
C         25.56327         6.02028        -0.44550
C         24.32348         5.32593        -0.42495
C         25.53904         7.47213        -0.43737
C         24.32430         8.16713        -0.48896
C         25.52557        10.40936        -0.64017
C         24.28243         9.61598        -0.92392
C         25.49214        11.77456        -0.75332
C         24.22816        12.47632        -0.90160
C         25.48809        14.71745        -0.96997
C         24.23323        13.92931        -1.24303
C         25.50552        16.15980        -1.38117
C         24.21318        16.91572        -1.41430
C         25.60759        19.07979        -0.90126
C         24.30928        18.34561        -0.94938
C         25.61278        20.57272        -0.79797
C         24.40526        21.26889        -0.61733
C         25.63985        23.38168        -0.49854
C         24.40808        22.67516        -0.38319
C         25.59713        24.87681        -0.43765
C         24.41275        25.59483         0.06091
C         25.70090        27.68753         0.41094
C         24.46152        26.95760         0.31618
C         25.73739        29.12458         0.72024
C         24.47975        29.94861         0.44672
C         25.75633        31.97206         1.46003
C         24.46052        31.27576         1.19826
C         25.80652        33.48260         1.42773
C         24.50974        34.25609         1.39664
C         25.68407        36.26921         0.44787
C         24.48908        35.61747         0.77985
C         25.68319        37.63664         0.02242
C         24.47647        38.32968        -0.05674
C         28.07240         6.08319        -0.22843
C         26.79112         5.35089        -0.49081
C         27.99194         7.55445        -0.53660
C         26.78753         8.19884        -0.46861
C         28.02778        10.39059        -0.30898
C         26.73166         9.66642        -0.13308
C         27.93717        11.85432        -0.11386
C         26.81032        12.51898        -0.88718
C         28.06826        14.72333        -0.58405
C         26.75349        14.01134        -0.61303
C         28.10588        16.15328        -1.00381
C         26.84281        16.88210        -1.35759
C         28.11426        19.09216        -1.04455
C         26.83272        18.41548        -1.50792
C         28.08270        20.48841        -0.89945
C         26.85500        21.26553        -0.82718
C         28.11523        23.51325        -1.09424
C         26.85515        22.69744        -0.73048
C         28.16720        24.86952        -0.39152
C         26.91917        25.64623        -0.37295
C         28.15471        27.59628         0.53322
C         26.90891        26.99027         0.23190
C         28.20913        28.97144         1.14769
C         26.92049        29.75092         1.00321
C         28.17156        31.90279         0.55594
C         27.08169        31.22176         1.37114
C         28.15066        33.26760         0.32824
C         27.05093        34.11568         0.85851
C         27.98300        36.07738        -0.57200
C         26.98564        35.55818         0.44789
C         28.10439        37.58715        -0.46732
C         26.95194        38.29650        -0.24448
C         30.51523         6.13889        -0.76351
C         29.33859         5.43247        -0.71135
C         30.52814         7.59199        -0.68323
C         29.23517         8.31756        -0.92505
C         30.47465        10.43629        -0.25744
C         29.23311         9.74625        -0.43758
C         30.46139        11.82668         0.25976
C         29.17606        12.62311         0.18870
C         30.45856        14.82920         0.02791
C         29.19705        14.07316        -0.18096
C         30.54050        16.20786        -0.49802
C         29.36408        16.93288        -0.81836
C         30.63086        19.13045        -1.06760
C         29.33265        18.33814        -0.95553
C         30.53406        20.42874        -0.25337
C         29.37759        21.21849        -0.84502
C         30.71124        23.42201        -0.62281
C         29.42083        22.70155        -0.94112
C         30.63917        24.83431        -0.17198
C         29.32847        25.50053        -0.01997
C         30.61145        27.60185         0.48924
C         29.34821        26.89674         0.37445
C         30.64319        29.01111         0.50068
C         29.39998        29.74783         0.61259
C         30.58939        31.75249        -0.16524
C         29.35251        31.09522         0.32514
C         30.54217        33.21157        -0.44475
C         29.29370        33.98216        -0.23145
C         30.50691        36.04511        -0.98804
C         29.28984        35.32766        -0.51185
C         30.53674        37.52426        -0.90467
C         29.37760        38.22797        -0.66873
C         32.96193         6.14974        -0.74548
C         31.79829         5.46043        -0.84260
C         32.98481         7.60129        -0.67851
C         31.70566         8.30688        -0.63961
C         32.93597        10.46405        -0.44932
C         31.70368         9.76141        -0.45912
C         33.00781        11.85375        -0.15962
C         31.77965        12.55857         0.31301
C         33.04248        14.75542         0.12649
C         31.75444        14.06708         0.30934
C         33.08316        16.12812        -0.09490
C         31.85452        16.81892        -0.57268
C         33.05022        19.02335        -0.22147
C         31.90043        18.35120        -0.77435
C         33.00081        20.40887         0.06972
C         31.85132        21.15969        -0.16834
C         32.85026        23.26203         0.77188
C         32.02559        22.64927        -0.39829
C         33.00773        24.75514         0.62043
C         31.84492        25.48138         0.38798
C         33.09529        27.57265         0.54113
C         31.84699        26.89203         0.47266
C         33.12275        29.00027         0.47659
C         31.89654        29.69372         0.40591
C         33.08018        31.81110         0.10459
C         31.90161        31.12019         0.15113
C         33.10154        33.26879        -0.14893
C         31.82064        33.97564        -0.37902
C         33.11519        36.07679        -0.88695
C         31.83144        35.32988        -0.99999
C         33.02010        37.52233        -0.95618
C         31.82409        38.18170        -0.98644
C         34.16179         8.29006        -0.74597
C         35.45758        10.43742        -0.54065
C         34.18097         9.77488        -0.95520
C         35.50363        11.82860        -0.35343
C         34.23455        12.53074        -0.17143
C         35.59040        14.68505         0.05132
C         34.28151        13.95865         0.18623
C         35.55878        16.15843        -0.04816
C         34.32483        16.83470        -0.11980
C         35.49998        18.97152         0.36677
C         34.37000        18.31883        -0.39427
C         35.53952        20.43413         0.44897
C         34.22809        21.08616         0.57562
C         35.48571        23.26300         0.89940
C         34.19115        22.53694         0.92039
C         35.48979        24.67097         0.94150
C         34.24796        25.42934         0.77069
C         35.63383        27.50827         0.40320
C         34.29354        26.82707         0.60428
C         35.59762        29.01653         0.44245
C         34.39420        29.69356         0.45636
C         35.61213        31.88605         0.07544
C         34.36851        31.20043         0.60234
C         35.60040        33.18157        -0.36222
C         34.33083        33.87977        -0.79320
C         34.28758        35.39538        -0.70700
C         36.73592        12.52317        -0.35690
C         38.06046        14.72452        -0.29460
C         36.77160        14.00298        -0.60383
C         38.06074        16.10919        -0.08229
C         36.80165        16.81978        -0.00635
C         38.03702        19.01469         0.39634
C         36.80506        18.22446         0.41286
C         37.97586        20.37865         0.61404
C         36.71764        21.09935         0.73101
C         37.93374        23.27619         0.99908
C         36.71485        22.55363         0.91052
C         37.93179        24.67714         1.13246
C         36.70579        25.36165         1.12767
C         38.45441        27.79001         0.31927
C         36.55233        26.83144         1.43666
C         38.16599        29.09202         0.37993
C         36.85629        29.75287         0.35405
C         36.83560        31.12452         0.17201
C         39.26422        16.88140         0.04670
C         40.49952        19.01190         0.23300
C         39.28908        18.29475         0.19682
C         40.53107        20.46353         0.27454
C         39.20696        21.18225         0.49823
C         40.48117        23.32881         0.86756
C         39.24322        22.52974         1.24056
C         40.45060        24.68177         0.83882
C         39.21670        25.50848         1.14545
C         39.03988        26.62205         0.10713
C         41.76280        21.23248         0.55666
C         41.72761        22.57282         0.74449
O         28.18244        12.31130         1.24696
O         35.92666        18.36231         1.61266
O         17.85704        16.56481         2.49205
O         27.66690        16.28789        -2.42338
O         13.78130        32.08321        -2.13110
O         14.84623        10.43827        -0.07290
O         32.18303        17.44025        -1.89716
O         31.08913        35.48532        -2.23550
O         29.66929        21.86677        -2.13153
O         11.09360        25.09384         1.84026
O         27.56075        35.19696         1.72776
O         25.85837        14.49326         0.44127
O         13.12415        15.70266         2.85179
O         39.22717        22.31954         2.61836
O         18.08345        33.07254         2.12621
O         12.30209        17.15123        -0.52636
O         24.86996        16.51942        -2.65135
O         32.47004        34.02964         0.94064
O         15.95342        31.91817         1.92824
O         31.20682        11.97293         1.51784
O         25.34761        34.17824         2.61071
O          5.92373        20.56533         0.28105
O         39.74149        21.13293        -0.82964
O         22.74891        28.44612        -0.61561
O         23.54588        14.17932        -2.50286
O         30.97455        14.66104         1.39857
O         26.15243        25.54012        -1.62098
O         20.70131        28.36483         2.66223
O         14.53752         8.99019         3.06524
O         15.45834        14.53491         3.03522
O         20.53666        32.95660         2.50507
O         36.82399        27.30368         2.52186
O         18.24402        12.05237         2.40312
O         30.90679        24.48934        -1.60457
O         11.00003        14.00466         2.42340
O         25.01298        31.35427         2.57170
O         20.54394        14.38543        -1.69154
O         25.06694        18.44224         0.30038
O         22.24147        21.23509        -1.78859
O         19.62484         9.77149        -1.18669
O         35.18301        14.20164         1.35080
O         30.48151        32.25340        -1.55510
O         10.49099        20.55500        -1.32462
O         16.41071        36.75274        -2.41124
O         13.99930        35.60231        -2.36704
O         16.11190         6.43724         2.56803
O         18.58168        36.05840         1.49791
O         34.08919        21.54604         1.99939
O         16.45051        32.52121        -1.62905
H         15.65881        32.24196        -2.15912
O         10.50960        16.51494         2.60549
H         10.89379        15.79281         3.16062
O         34.15935         9.95169        -2.44114
H         34.23964        10.91385        -2.61873
O         32.84227        22.78206        -1.58110
H         32.24761        22.77932        -2.36197
O         26.74220        18.69684        -2.92403
H         27.25331        17.99834        -3.39241
O          8.52893        18.69914        -2.08364
H          9.33021        18.13889        -2.07329
O         14.23084        25.69134         2.57373
H         14.36104        24.81825         3.01532
O         28.19600         6.03771         1.26231
H         27.45725         6.57041         1.63104
O         22.47083        18.84676        -2.31538
H         22.02002        19.67629        -2.60480
O         10.16339        29.22110        -2.68271
H         11.01467        29.68222        -2.84740
O         39.39925        26.10568         2.43709
H         39.38231        25.38918         3.10544
O         27.20900        12.39434        -2.28259
H         26.41976        12.51215        -2.85301
O         15.05415        22.78204        -0.89065
H         14.35830        22.38997        -1.45882
O         19.84313        33.71824        -1.00366
H         19.03919        33.88226        -1.54323
O         19.94153         8.39739         2.19324
H         19.86180         7.53199         2.64759
O         15.82442        27.55693         2.34849
H         14.95406        27.82307         2.71237
O         22.21510        16.41695        -2.66405
H         22.85030        16.05488        -3.32164
O         15.46418        23.13204         2.73744
H         16.29110        23.33655         3.23040
O         27.40105        35.78001        -1.87765
H         28.08513        35.94928        -2.56001
O         26.52249         9.65310         1.33790
H         26.83675        10.51481         1.69546
O         20.44297        16.91645         2.27741
H         19.73465        17.00848         2.95846
O         22.74486        25.19040        -1.56456
H         23.55464        25.04939        -2.10368
O          9.11605        27.05854         1.54313
H          9.73659        26.49413         2.06720
O         34.39277        31.46678         2.04536
H         33.61027        31.03199         2.44528
O         36.53211        14.17507        -2.06294
H         37.34093        13.87806        -2.53174
O         22.58998        26.62895         2.60410
H         22.10411        27.24046         3.20880
O         34.73087        18.48462        -1.80639
H         33.98617        18.10072        -2.32864
O         15.84789        15.77451        -0.40716
H         15.60310        16.57405        -0.92077
O         27.97648        23.81184        -2.50027
H         28.42662        23.08581        -2.99129
O         18.59894        23.23059         2.73644
H         18.84838        22.30404         2.94485
O         13.56145        31.44144         1.50053
H         14.19360        31.45652         2.25990
O          7.35365        18.49028         1.13918
H          6.59671        19.13598         1.08240
O         30.17050        20.06051         1.10504
H         30.49594        20.75083         1.72104
O         14.65233        26.43874        -1.00436
H         15.55923        26.64468        -1.34018
O         27.60801        31.26096         2.74121
H         26.82765        31.20225         3.34031
O         22.96533        33.47988         3.06866
H         23.85390        33.39608         3.49010
O         20.34258        23.69532        -1.38507
H         21.12289        24.17511        -1.76315
O         28.45678        28.74494         2.56947
H         28.38274        29.63497         2.99909
O         34.18554        33.55533        -2.21826
H         34.95187        33.93536        -2.69653
O         36.12397        27.09821        -0.90585
H         35.48087        27.40518        -1.57888
O         30.73330        19.51100        -2.45753
H         31.01593        18.71383        -2.95800
O         24.54762        30.34157        -0.94718
H         24.12276        29.61906        -1.46696
O         24.22038         9.54662        -2.40014
H         23.34133         9.18446        -2.64375
O         17.20510        26.96370        -0.98308
H         17.92706        26.34984        -1.23864
O         32.05442        23.04061         1.96169
H         32.58293        22.44146         2.54558
O         12.51439         7.38932         2.78970
H         12.91766         8.04890         3.40321
O         22.64692        18.37316         1.30893
H         22.04900        17.88625         1.92896
O         29.14414         8.43581        -2.39413
H         29.27500         7.54025        -2.77255
H          5.45388        18.14133        -0.90670
H          4.51517        20.44776        -2.66799
H          4.36556        22.88724        -2.50946
H          5.23055        25.04864        -1.75459
H          8.09528        14.12012        -1.00232
H          6.75716        16.02817        -1.24640
H          6.31198        27.23214        -1.37510
H          7.60391        29.23086        -1.66327
H         10.43269         9.94500        -0.38648
H          9.26393        12.04609        -0.63700
H          8.80125        31.51457        -1.46006
H         10.00058        33.67417        -1.24644
H         12.39676         5.58881         0.76835
H         11.36990         7.84756         0.36489
H         11.17227        35.75442        -0.55955
H         12.48064        38.24199        -0.96955
H         14.46739         4.34273         0.56069
H         14.62308        39.18313        -0.87261
H         16.94606         4.34486         0.19030
H         17.04648        39.36647        -0.83442
H         19.41267         4.28336         0.14933
H         19.56884        39.41333        -0.43939
H         21.85180         4.24148        -0.18224
H         22.02547        39.39980        -0.32394
H         24.32090         4.22628        -0.43589
H         24.47140        39.39300        -0.33767
H         26.80486         4.25018        -0.46692
H         26.96839        39.39705        -0.27012
H         29.36630         4.33299        -0.76194
H         29.42114        39.32498        -0.58010
H         33.92560         5.61982        -0.76946
H         31.80276         4.36348        -0.92166
H         33.95552        38.10165        -0.96669
H         31.82221        39.28215        -1.01096
H         35.11510         7.74443        -0.81778
H         36.39777         9.88460        -0.69090
H         36.55635        33.65124        -0.65120
H         35.23312        35.95344        -0.61290
H         37.66277        11.94029        -0.47692
H         39.01435        14.18077        -0.37313
H         39.02621        29.78008         0.49292
H         37.78605        31.65227        -0.00560
H         40.22728        16.35440        -0.04050
H         41.45030        18.45975         0.29813
H         41.38433        25.24150         0.66435
H         39.25196        26.33345        -0.94055
H         42.72322        20.69597         0.53749
H         42.67263        23.12747         0.85636
