         640
 CSIRO Nanostructure Databank - Neutral Graphene Oxide Data Set
C         23.01004        27.28569         0.05974
C         22.99918        28.65729         0.00673
C         22.99665        31.58222        -0.21919
C         23.00149        32.94998        -0.39701
C         23.06094        35.85054        -0.91967
C         23.06155        37.25897        -0.99212
C         22.99279        40.17703        -0.75142
C         22.96860        41.55306        -0.60810
C         22.90558        44.51971        -0.54209
C         22.95715        45.87163        -0.60700
C         25.46039        24.47164         0.40800
C         24.26183        25.15351         0.25263
C         25.44878        27.29684         0.36654
C         24.23336        26.56864         0.22806
C         25.43066        28.73268         0.30362
C         24.20378        29.41952         0.11263
C         25.41968        31.59328         0.08231
C         24.19912        30.86097        -0.00241
C         25.42842        33.01140        -0.10172
C         24.20777        33.69512        -0.37677
C         25.50911        35.79425        -0.75615
C         24.21463        35.10965        -0.67226
C         25.50947        37.34022        -0.83659
C         24.21443        38.02242        -0.82406
C         25.41616        40.17295        -0.40032
C         24.20305        39.45865        -0.64775
C         25.38598        41.59151        -0.23539
C         24.14386        42.27345        -0.33037
C         25.37901        44.48054         0.10103
C         24.06114        43.72931        -0.07910
C         25.39540        45.92470        -0.16363
C         24.18611        46.61055        -0.40053
C         25.41260        48.70920        -0.46955
C         24.21315        48.01443        -0.55211
C         28.04097        22.99213         0.38062
C         27.97770        24.42894         0.84030
C         26.67672        25.16615         0.55057
C         27.91080        27.31950         0.64796
C         26.67047        26.57982         0.54597
C         27.89060        28.77528         0.60977
C         26.65396        29.47306         0.42239
C         27.86760        31.63020         0.46363
C         26.65114        30.89373         0.32802
C         27.87814        33.05237         0.33335
C         26.66788        33.74438         0.01152
C         27.90682        35.88875        -0.06113
C         26.71402        35.13636        -0.23413
C         27.91331        37.32695        -0.16369
C         26.71536        38.05779        -0.40056
C         27.88682        40.19189        -0.06715
C         26.66967        39.46395        -0.27519
C         27.87594        41.61325        -0.00374
C         26.62968        42.32486        -0.04943
C         27.86598        44.47158         0.08702
C         26.64152        43.72958         0.01887
C         27.84877        45.88737         0.08469
C         26.63478        46.62031        -0.11981
C         27.90669        48.76656        -0.20308
C         26.63749        48.04294        -0.26654
C         27.94158        50.20835        -0.38636
C         30.29434        23.24367        -0.70313
C         29.11251        22.44120        -0.20520
C         30.37152        24.59436        -0.02883
C         29.19230        25.22012         0.40870
C         30.36390        27.43222         0.30537
C         29.12559        26.62938         0.59322
C         30.34399        28.76261         1.04744
C         29.07926        29.51311         0.73349
C         30.31533        31.65646         0.86120
C         29.09360        30.93176         0.70171
C         30.31785        33.07866         0.74991
C         29.09709        33.77980         0.46020
C         30.33202        35.92538         0.43408
C         29.11376        35.20086         0.29692
C         30.35375        37.34827         0.27742
C         29.12781        38.05142         0.04530
C         30.35267        40.19783         0.12520
C         29.12197        39.47707         0.03307
C         30.35238        41.62004         0.12421
C         29.11037        42.33744         0.10017
C         30.35768        44.48188         0.16603
C         29.11238        43.75685         0.14891
C         30.37577        45.89914         0.18975
C         29.08827        46.64197         0.47427
C         30.36617        48.84174         0.28112
C         29.07895        48.09103         0.04521
C         30.37881        50.28861        -0.18599
C         29.10058        50.92524        -0.34690
C         32.84878        20.45738        -1.17276
C         31.64748        21.13797        -1.02085
C         32.85093        23.20041        -0.56700
C         31.62289        22.50522        -0.71603
C         32.84407        24.61642        -0.24249
C         31.62788        25.26821        -0.01202
C         32.84636        27.45739         0.08804
C         31.65310        26.65004         0.59460
C         32.83474        28.85941         0.64948
C         31.61681        29.53489         0.82219
C         32.79738        31.64865         1.03874
C         31.57999        30.94904         0.95774
C         32.79897        33.12736         1.29716
C         31.53173        33.80714         0.84966
C         32.80643        35.89371         0.62728
C         31.55411        35.20868         0.68573
C         32.84627        37.38509         0.77392
C         31.57179        38.07648         0.35730
C         32.84620        40.19593         0.19665
C         31.58718        39.47534         0.22905
C         32.83026        41.62530         0.11024
C         31.59409        42.33553         0.12090
C         32.82155        44.48318        -0.03084
C         31.59258        43.76481         0.09692
C         32.80351        45.89963        -0.13725
C         31.59119        46.59616         0.02012
C         32.87850        48.81625         0.03282
C         31.56592        48.07495        -0.31274
C         32.86530        50.20989        -0.60933
C         31.58027        50.96762        -0.34287
C         32.87477        53.05282        -0.41627
C         31.67200        52.39956        -0.44554
C         35.40320        19.05495        -1.52331
C         35.33157        20.42260        -1.29559
C         34.08491        21.12435        -1.04475
C         35.35576        23.22234        -0.57585
C         34.09052        22.51108        -0.71995
C         35.34612        24.62721        -0.20802
C         34.11110        25.31396        -0.05129
C         35.33150        27.40627         0.45901
C         34.12828        26.69589         0.25285
C         35.31465        28.81995         0.73933
C         34.06047        29.54117         0.80765
C         35.25941        31.67830         1.07521
C         34.03133        30.95346         1.02622
C         35.27428        33.06031         0.78274
C         34.03977        33.79316         0.75579
C         35.17113        35.82847        -0.20365
C         34.01084        35.16882         0.50867
C         35.25535        37.33132         0.02773
C         34.10423        38.04302         0.24370
C         35.30918        40.20791         0.04112
C         34.07193        39.49298         0.15688
C         35.30444        41.63660         0.03784
C         34.06463        42.35029         0.02724
C         35.30961        44.48306        -0.18117
C         34.06384        43.76466        -0.08367
C         35.32698        45.88583        -0.35430
C         34.03977        46.60330        -0.66904
C         35.31804        48.75863        -0.38123
C         34.12075        48.07416        -0.38041
C         35.35018        50.21932        -0.28444
C         34.14527        50.95552        -0.30381
C         35.38671        53.06838        -0.22040
C         34.14165        52.36351        -0.30678
C         35.44170        54.49092        -0.13928
C         37.85495        18.97219        -1.33843
C         36.62812        18.35380        -1.55450
C         37.91337        20.43791        -1.33161
C         36.57027        21.20397        -1.32574
C         37.87299        23.33600        -0.90851
C         36.56063        22.58648        -0.83580
C         37.82700        24.66310        -0.19761
C         36.58054        25.32169        -0.01486
C         37.78572        27.39700         0.63240
C         36.57105        26.70278         0.38257
C         37.74564        28.77370         0.97245
C         36.52725        29.48799         1.00020
C         37.76279        31.68533         1.08956
C         36.50661        30.94087         1.46047
C         37.75053        33.01285         0.66508
C         36.50970        33.71128         0.47926
C         37.81586        35.86855         0.08701
C         36.49892        35.08564        -0.02819
C         37.79357        37.33669         0.15815
C         36.54977        38.03893        -0.35626
C         37.75496        40.20432         0.12846
C         36.53402        39.50586        -0.00938
C         37.76702        41.63350         0.13728
C         36.53697        42.34581         0.02748
C         37.78035        44.47312        -0.08988
C         36.54273        43.76963        -0.07010
C         37.78578        45.89002        -0.23242
C         36.55132        46.60093        -0.35847
C         37.79723        48.73811        -0.40050
C         36.57218        48.03653        -0.42813
C         37.82833        50.17991        -0.36806
C         36.59524        50.90855        -0.29040
C         37.86272        53.04021        -0.25170
C         36.61327        52.33957        -0.24645
C         37.88404        54.46579        -0.17778
C         36.63963        55.15989        -0.10849
C         40.29779        16.13009        -1.33330
C         39.12007        16.83364        -1.39125
C         40.28885        18.92135        -0.81954
C         39.08933        18.23895        -1.16471
C         40.29653        20.34384        -0.57898
C         39.11797        21.11437        -0.79962
C         40.27816        23.15279        -0.11038
C         39.09241        22.49528        -0.55114
C         40.25168        24.54852         0.15948
C         39.04377        25.29573         0.14153
C         40.25566        27.38725         0.69674
C         39.04942        26.70084         0.53430
C         40.29197        28.77870         1.02250
C         39.01374        29.45533         1.29564
C         40.29729        31.66301         1.07958
C         39.02637        30.98895         1.34958
C         40.28137        33.04970         0.82009
C         39.00854        33.75605         0.62919
C         40.25418        35.87024         0.91400
C         38.99919        35.12715         0.53935
C         40.22384        37.34296         0.60147
C         38.97012        38.04293         0.40408
C         40.18045        40.21639         0.50087
C         38.98653        39.49420         0.31054
C         40.21847        41.63359         0.43468
C         39.00151        42.34366         0.22044
C         40.24750        44.47205         0.05834
C         39.01091        43.76563         0.07665
C         40.25722        45.87630        -0.19007
C         39.02510        46.59335        -0.28539
C         40.27261        48.70873        -0.47958
C         39.03158        48.01378        -0.38709
C         40.30332        50.14932        -0.49751
C         39.06545        50.87196        -0.39967
C         40.32723        53.00405        -0.36752
C         39.08879        52.30831        -0.34064
C         40.35240        54.43025        -0.27328
C         39.13474        55.16689        -0.17076
C         40.40471        57.25337        -0.04065
C         39.20303        56.59112        -0.06075
C         42.73003        16.06057        -0.98104
C         41.51603        16.78834        -1.00765
C         42.73258        18.82609        -0.32592
C         41.51269        18.18488        -0.71220
C         42.73626        20.25423        -0.04083
C         41.50821        21.00022        -0.18857
C         42.74419        23.08419         0.29587
C         41.50235        22.40233         0.03285
C         42.76486        24.49328         0.44555
C         41.47509        25.21816         0.73244
C         42.79870        27.35354         0.76991
C         41.53084        26.68045         0.30747
C         42.77257        28.74645         1.35478
C         41.48805        29.49532         1.12452
C         42.75265        31.64005         0.96231
C         41.51568        30.93414         1.11062
C         42.73838        33.04369         0.76136
C         41.50496        33.72906         0.67732
C         42.74529        35.93625         0.56663
C         41.46567        35.18629         0.29526
C         42.70259        37.31796         0.61124
C         41.43272        38.01104         0.61440
C         42.69879        40.22818         0.95711
C         41.41052        39.47263         0.81994
C         42.66542        41.68554         0.80332
C         41.46850        42.36209         0.57335
C         42.69122        44.51123         0.27419
C         41.47754        43.79222         0.32835
C         42.73721        45.85828        -0.18677
C         41.49326        46.56747        -0.36375
C         42.71204        48.67240        -0.91487
C         41.47370        47.96827        -0.57074
C         42.76986        50.12705        -0.74050
C         41.54156        50.83790        -0.54188
C         42.78849        52.96912        -0.46957
C         41.56655        52.28220        -0.46048
C         42.82999        54.39160        -0.37127
C         41.60417        55.11858        -0.26967
C         42.88281        57.20291        -0.10939
C         41.63649        56.53821        -0.14076
C         43.90890        16.69381        -0.64623
C         45.17461        18.66799         0.21455
C         43.92293        18.06276        -0.29416
C         45.15564        20.14019         0.55804
C         43.92883        20.92156         0.29374
C         45.19211        23.07187         0.57572
C         43.97066        22.35453         0.38915
C         45.20858        24.47875         0.52774
C         43.97581        25.19522         0.49638
C         45.25218        27.32702         0.77235
C         43.98414        26.64730         0.68091
C         45.26890        28.76612         1.06578
C         44.01529        29.53429         1.04087
C         45.25384        31.65469         0.74193
C         44.01399        30.91415         0.94643
C         45.22224        33.08041         0.62656
C         43.98672        33.78866         0.63688
C         45.22494        35.93242         0.54361
C         43.98188        35.20405         0.56192
C         45.23404        37.35687         0.57973
C         43.96029        38.10183         0.32124
C         45.18411        40.22917         0.84763
C         43.97918        39.52861         0.78800
C         45.20997        41.67143         0.95773
C         43.93161        42.38767         1.02959
C         45.22931        44.53126         0.44866
C         43.94000        43.90469         0.74634
C         45.22778        45.87723        -0.00782
C         43.99283        46.51329        -0.31647
C         45.28098        48.65179        -0.69440
C         44.03709        47.88722        -0.81607
C         45.23767        50.05014        -0.82535
C         44.01623        50.77277        -0.77348
C         45.27881        52.99477        -0.85122
C         44.08504        52.21742        -0.35263
C         45.31776        54.35070        -0.60377
C         44.07861        55.08838        -0.35621
C         44.07083        56.49192        -0.21818
C         47.65309        18.79212        -0.02499
C         46.48458        18.07276        -0.09655
C         47.72184        20.16468         0.33101
C         46.47197        20.85589         0.71469
C         47.80346        23.10543         0.77603
C         46.46695        22.35093         0.83844
C         47.67891        24.53776         0.32662
C         46.46483        25.21230         0.45728
C         47.67563        27.37795         0.22229
C         46.45286        26.65307         0.50043
C         47.71732        28.80461         0.27352
C         46.57065        29.53332         0.82610
C         47.69585        31.67945         0.32321
C         46.48214        30.98135         0.60461
C         47.69138        33.08986         0.34259
C         46.45453        33.80266         0.48534
C         47.69442        35.97765         0.14266
C         46.44121        35.21551         0.46923
C         47.71126        37.38938         0.67389
C         46.44891        38.08837         0.73915
C         47.64017        40.24685         1.20559
C         46.42241        39.49942         0.88189
C         47.67711        41.70933         1.01036
C         46.41979        42.39771         0.90743
C         47.68511        44.50262         0.50162
C         46.43156        43.82129         0.65484
C         47.69935        45.88514         0.14606
C         46.48127        46.57408        -0.13636
C         47.76223        48.66426        -0.55162
C         46.50378        47.96076        -0.46153
C         47.78269        50.04857        -0.87421
C         46.51105        50.75930        -1.09572
C         47.81739        53.02641        -1.42411
C         46.49801        52.25819        -1.27564
C         47.77133        54.37621        -0.75285
C         46.61223        55.01922        -0.52231
C         50.18558        20.26356        -0.13601
C         48.92681        20.93193         0.11020
C         50.09989        23.07800        -0.44459
C         48.90928        22.32990         0.10705
C         50.13197        24.55166        -0.13128
C         48.87319        25.25269         0.01358
C         50.05507        27.30739        -0.74502
C         48.83195        26.65145        -0.13390
C         50.01058        28.83611        -0.72170
C         48.85714        29.54122        -0.11627
C         50.14487        31.67809        -0.14190
C         48.90723        30.95016         0.02633
C         50.18207        33.07986         0.13996
C         48.94452        33.81225         0.33369
C         50.17891        35.92987         0.67335
C         48.93950        35.19611         0.44556
C         50.18443        37.39773         0.62512
C         48.92016        38.06068         0.78962
C         50.19448        40.24341         0.91596
C         48.96031        39.48484         1.15513
C         50.16989        41.66288         0.98211
C         48.89954        42.39126         0.97463
C         50.14325        44.53594         0.71909
C         48.91360        43.81562         0.73712
C         50.17606        45.89050         0.36071
C         48.95012        46.57806         0.02729
C         50.28349        48.57550        -0.71652
C         48.97050        47.94047        -0.34121
C         50.25162        50.08630        -0.69801
C         49.02333        50.78575        -0.88464
C         50.27625        52.86717        -1.03937
C         49.04561        52.20213        -1.05201
C         51.37508        20.95857        -0.18716
C         52.62047        23.12026        -0.15871
C         51.41211        22.37459        -0.20177
C         52.59545        24.55818        -0.16993
C         51.33190        25.24557        -0.13836
C         52.59650        27.41833        -0.46729
C         51.30440        26.76247        -0.03008
C         52.59980        28.81027        -1.08803
C         51.29843        29.59033        -0.89370
C         52.55414        31.74001        -0.68330
C         51.34781        31.01991        -0.50661
C         52.55908        33.14394        -0.47533
C         51.40298        33.78218         0.01214
C         52.66684        36.01231         0.08010
C         51.49234        35.19365         0.41647
C         52.63791        37.40859         0.29827
C         51.39326        38.09771         0.58252
C         52.62469        40.26345         0.63111
C         51.39645        39.54528         0.68334
C         52.62481        41.67560         0.84234
C         51.39162        42.36428         0.97064
C         52.67351        44.53513         1.12642
C         51.35059        43.83388         1.30937
C         52.60933        46.02036         1.04164
C         51.41421        46.65181         0.42069
C         52.71743        48.71499        -0.04048
C         51.47207        47.96936         0.00219
C         52.73354        50.05587        -0.51349
C         51.47368        50.78297        -0.69083
C         51.46936        52.18323        -0.83657
C         55.06271        23.20164        -0.11601
C         53.89271        22.47889        -0.08159
C         55.06214        24.62088        -0.21528
C         53.81513        25.29561        -0.17688
C         55.06436        27.51085        -0.11301
C         53.77636        26.74763        -0.32870
C         55.05160        28.94272        -0.58479
C         53.84075        29.61332        -0.75410
C         55.03442        31.74233        -0.91375
C         53.81633        31.03246        -0.86731
C         55.04391        33.19588        -1.12628
C         53.72525        33.95748        -0.85896
C         55.00862        36.10895        -0.62674
C         53.81786        35.38809        -0.46495
C         55.04878        37.49130        -0.25124
C         53.84592        38.15239         0.14862
C         55.08060        40.26910         0.47870
C         53.85413        39.56419         0.40616
C         55.08104        41.66122         0.83387
C         53.88370        42.37235         0.97930
C         55.14442        44.52590         1.43999
C         53.85469        43.82550         1.19990
C         55.19268        46.03882         1.20650
C         53.91430        46.78642         0.97038
C         55.17592        48.71249        -0.03024
C         53.95070        48.08499         0.27279
C         55.16295        49.99763        -0.58648
C         53.96242        50.67786        -0.77547
C         57.55026        24.66667        -0.59825
C         56.31302        25.35274        -0.41456
C         57.52108        27.48508        -0.63581
C         56.31413        26.75808        -0.46616
C         57.52827        28.92496        -0.66299
C         56.28328        29.64670        -0.64923
C         57.51242        31.79186        -0.87892
C         56.27791        31.06209        -0.82064
C         57.50858        33.23755        -0.96471
C         56.28928        33.94193        -1.04706
C         57.50528        36.10224        -0.80145
C         56.23005        35.44506        -1.25181
C         57.50811        37.60952        -0.85741
C         56.26995        38.24398        -0.26562
C         57.57659        40.29918         0.20686
C         56.30465        39.57033         0.17092
C         57.60715        41.62758         0.56560
C         56.41032        42.22561         1.29207
C         57.70730        44.53118         1.21223
C         56.44209        43.75214         1.41620
C         57.65966        45.98629         0.91436
C         56.45412        46.65449         0.77396
C         57.69764        48.76556         0.41091
C         56.48521        47.95833         0.01353
C         58.73003        25.35515        -0.77119
C         59.96097        27.50413        -0.91866
C         58.74814        26.77541        -0.78163
C         59.95876        28.88071        -0.92156
C         58.74753        29.62416        -0.80824
C         59.94591        31.80835        -0.97794
C         58.74433        31.07882        -0.87327
C         59.94254        33.19978        -1.09256
C         58.75811        33.93298        -1.06073
C         59.99296        36.10932        -0.73942
C         58.76763        35.43335        -1.28999
C         59.98134        37.39930        -0.34195
C         58.79093        38.22004        -0.34770
C         60.07568        40.26013         0.19249
C         58.81912        39.56254        -0.01965
C         60.12062        41.59661         0.36409
C         58.87766        42.38439         0.41381
C         60.19513        44.61299         0.91286
C         58.93929        43.85353         0.69360
C         60.14188        45.97778         0.93762
C         58.90381        46.68688         0.79582
C         58.86155        48.12131         0.70043
O         46.34128        51.40033        -2.46100
O         37.33716        35.31062        -1.22126
O         37.37579        21.04236        -2.56121
O         43.36479        48.12131        -2.10177
O         39.02110        30.16964         2.58142
O         57.30469        44.13312         2.55616
O         55.17053        45.45935         2.55162
O         41.93910        39.78123         2.17361
O         43.85573        43.37528         2.10880
O         25.73265        36.50243        -2.01764
O         53.09123        46.79865         2.18477
O         48.31428        39.79111         2.43387
O         45.00499        19.12671         1.61042
O         58.77605        43.39768        -0.70236
O         50.99827        35.40719         1.77871
O         50.36439        29.40723        -2.03872
O         46.16904        29.11740         2.18046
O         46.45508        21.52062         2.05273
O         24.53782        44.10449         1.25673
O         54.16124        33.67123        -2.21372
O         49.90637        23.03818        -1.92475
H         50.56113        23.65527        -2.31808
O         41.28554        35.23576        -1.15127
H         42.12804        34.96802        -1.57393
O         44.33629        52.11380         1.11668
H         44.22308        53.01370         1.49319
O         41.58288        26.67770        -1.15292
H         41.55662        27.60641        -1.46364
O         56.10184        35.65750        -2.71748
H         56.19188        36.63647        -2.84742
O         55.11565        27.63680         1.36651
H         55.35399        26.75527         1.72586
O         31.35872        48.09741        -1.74373
H         32.17616        47.74798        -2.17159
O         33.87384        46.52694        -2.15066
H         33.90620        45.57683        -2.39642
O         50.10891        26.85709        -2.11850
H         50.06171        27.65542        -2.69337
O         51.11255        43.89845         2.76209
H         51.92761        43.59556         3.21631
O         32.92197        37.59609         2.24277
H         32.84742        38.56224         2.40026
O         30.47100        48.92932         1.74345
H         30.09051        48.08932         2.11821
O         38.04864        23.67627        -2.33501
H         37.93860        22.82433        -2.82828
O         30.27440        27.77002        -1.09867
H         30.58727        27.00339        -1.62358
O         47.97612        53.33057        -2.84206
H         47.55093        52.58636        -3.33042
O         28.05917        24.37726         2.30577
H         28.97869        24.13314         2.54389
O         30.28376        28.50448         2.49487
H         30.36376        29.36713         2.95513
O         47.68802        36.14099        -1.34030
H         47.62099        35.24201        -1.72875
O         36.46555        30.88969         2.93270
H         37.34428        30.53332         3.22109
O         42.81092        28.54013         2.81677
H         43.72091        28.25975         3.05594
O         58.81303        35.60557        -2.76372
H         57.91922        35.32245        -3.09201
O         32.92047        50.04014        -2.06129
H         32.86057        50.93263        -2.46209
O         56.53397        41.70249         2.65498
H         57.01562        42.38690         3.17806
O         57.46450        37.95996        -2.30846
H         58.22143        37.46673        -2.71673
O         30.01528        23.53225        -2.11886
H         29.15415        23.99983        -2.16004
O         29.02814        46.68702         1.98305
H         28.10553        46.92203         2.22566
O         48.30068        23.23247         2.15248
H         47.89334        22.48299         2.65522
O         31.82416        26.42050         2.01028
H         31.37318        27.14543         2.51033
O         43.91019        38.24296        -1.18295
H         44.82264        38.45156        -1.48144
O         36.65326        37.98164        -1.82512
H         36.99867        37.08495        -2.04790
O         52.75052        28.55993        -2.52010
H         51.87845        28.74408        -2.94094
O         51.14401        27.13902         1.36936
H         51.89995        26.77199         1.87415
O         34.79700        35.66852        -1.60804
H         35.62835        35.66937        -2.13402
O         33.04921        48.96188         1.46066
H         32.16317        49.14178         1.86939
O         50.48725        48.21057        -2.13999
H         49.75717        48.62026        -2.65203
O         41.31815        25.20514         2.18223
H         41.34833        24.27371         2.48546
O         32.73576        27.60227        -1.36584
H         33.49964        28.13737        -1.66779
O         40.41162        35.76357         2.35884
H         39.78002        36.37610         2.78965
O         56.70558        47.57966        -1.40345
H         57.58471        47.14546        -1.45534
O         32.84357        33.28595         2.76945
H         32.86777        34.24990         2.95401
H         22.07089        26.72162        -0.03535
H         22.03776        29.16955        -0.13002
H         22.03531        31.05439        -0.26396
H         22.04662        33.45952        -0.58146
H         22.08492        35.34815        -0.95934
H         22.08430        37.75257        -1.07990
H         22.04998        39.65074        -0.94633
H         22.00532        42.07479        -0.67782
H         21.98111        44.00284        -0.83504
H         22.06672        46.43930        -0.91573
H         25.45087        23.37309         0.42659
H         23.32041        24.59534         0.14758
H         25.38856        49.80079        -0.58008
H         23.27492        48.55674        -0.73579
H         27.20850        22.33593         0.67993
H         27.00355        50.74595        -0.57551
H         29.08286        21.36631        -0.44166
H         29.05618        52.00685        -0.53888
H         32.81954        19.39168        -1.43373
H         30.71013        20.58641        -1.17229
H         32.86784        54.15059        -0.45207
H         30.75192        53.00156        -0.45984
H         34.48365        18.45733        -1.57989
H         34.51199        55.07295        -0.09033
H         36.57195        17.26070        -1.64078
H         36.62593        56.25541        -0.04010
H         40.31279        15.05100        -1.54228
H         38.19698        16.30141        -1.65378
H         40.43143        58.34856         0.05372
H         38.27838        57.17777         0.01895
H         42.72093        14.98724        -1.21721
H         42.90659        58.29742        -0.00922
H         44.83790        16.11008        -0.61052
H         45.01618        57.05031        -0.21336
H         48.57649        18.27682        -0.32204
H         46.53122        17.03752        -0.45988
H         48.71767        54.91304        -0.59701
H         46.64567        56.04668        -0.13387
H         50.22594        19.16689        -0.13501
H         50.31363        53.95132        -1.20813
H         52.31173        20.38364        -0.20378
H         52.40832        52.75107        -0.81194
H         56.01335        22.65417        -0.07927
H         53.95101        21.38455        -0.01733
H         56.10613        50.48344        -0.87028
H         53.99350        51.69608        -1.18481
H         57.57801        23.56944        -0.59757
H         57.67472        49.86201         0.33851
H         59.67482        24.80712        -0.89748
H         60.90702        26.95349        -1.02204
H         60.91645        29.40535        -1.03437
H         60.91367        31.29091        -0.98602
H         60.90694        33.70987        -1.21644
H         60.94106        35.55529        -0.69626
H         60.91772        37.82992         0.04090
H         61.01872        39.70068         0.14007
H         61.08540        42.11671         0.43948
H         61.16068        44.09084         0.96003
H         61.06981        46.56197         1.02829
H         59.78663        48.68946         0.87992
