         276
 CSIRO Nanostructure Databank - Neutral Graphene Oxide Data Set
C        -11.11015         0.33284        -0.69699
C         -9.78275         1.04108        -0.94296
C         -8.79351         0.54130         0.09586
C         -7.47327         1.21936         0.12474
C         -6.30421         0.57848         0.77675
C         -5.14766         1.48506         1.12692
C         -3.93172         0.78005         1.65451
C         -2.64257         1.58035         1.76787
C         -1.30889         0.87615         1.93152
C         -0.03105         1.65838         1.77300
C          1.22599         0.83075         2.14305
C          2.57610         1.54764         1.92947
C          3.84919         0.76151         1.78076
C          4.96302         1.25575         0.84640
C          6.39077         0.64695         1.12403
C          7.33833         0.99577        -0.03350
C          8.60980         0.19221        -0.23017
C          9.89984         0.92496        -0.43165
C         11.15766         0.19179        -0.15075
C         -9.77271         2.55885        -0.97334
C         -8.69093         3.30158        -0.65027
C         -7.46558         2.74154         0.05931
C         -6.10974         3.21612        -0.55542
C         -5.03006         2.84247         0.49303
C         -3.74421         3.61768         0.54504
C         -2.65385         3.06436         1.42436
C         -1.33943         3.81428         1.54108
C         -0.04906         3.02716         1.66072
C          1.25127         3.78041         1.53392
C          2.54649         3.01089         1.56061
C          3.63435         3.46007         0.57806
C          5.03508         2.82307         0.80151
C          6.04182         3.29664        -0.34060
C          7.30342         2.42722        -0.48656
C          8.59844         3.12065        -0.75011
C          9.91319         2.44273        -0.38193
C         -8.72127         4.81510        -0.66733
C         -7.35951         5.49209        -0.79959
C         -6.09236         4.70306        -0.92705
C         -4.77181         5.43887        -0.86070
C         -3.65662         4.86141        -0.02404
C         -2.58037         5.81094         0.41220
C         -1.30862         5.33244         1.19207
C         -0.06789         5.74823         0.38324
C          1.25152         5.27029         1.04423
C          2.45247         5.68241         0.10314
C          3.75805         4.98362         0.47861
C          5.06139         5.60627         0.04929
C          6.37205         4.78932         0.01123
C          7.39880         5.26707        -1.02445
C          8.60889         4.44805        -1.04488
C         -7.33345         6.84483        -0.67348
C         -6.13780         7.64972        -0.99790
C         -4.83293         6.91830        -1.17129
C         -3.49253         7.66192        -1.28183
C         -2.52850         7.18432        -0.19470
C         -1.24372         7.98290        -0.17659
C          0.01279         7.29225         0.21464
C          1.33116         7.99373        -0.05562
C          2.59758         7.21028         0.07964
C          3.84350         7.76225        -0.55405
C          4.90514         6.76498        -0.89658
C          5.99887         7.16565        -1.82643
C          7.26181         6.39469        -1.76677
C         -6.08995         9.11150        -0.78118
C         -4.93384         9.80242        -0.90113
C         -3.63453         9.18149        -1.12745
C         -2.48839         9.90691        -1.09199
C         -1.15394         9.19290        -1.12936
C          0.05105        10.09508        -0.78356
C          1.33673         9.28021        -0.80888
C          2.46223         9.73725        -1.41145
C          3.77469         9.04743        -1.32415
C          4.86152         9.32356        -2.30345
C          5.92646         8.51132        -2.45630
C        -11.14733        -0.96750        -0.34280
C         -9.85412        -1.75587        -0.21919
C         -8.84349        -0.87972         0.49771
C         -7.64249        -1.57567         1.07642
C         -6.39837        -0.80711         1.36151
C         -5.12584        -1.56239         1.35540
C         -3.91096        -0.73583         1.64608
C         -2.57809        -1.42557         1.61450
C         -1.29783        -0.63449         1.74609
C         -0.05525        -1.22927         1.14631
C          1.23231        -0.50463         1.35673
C          2.45823        -1.37671         1.48674
C          3.77150        -0.74479         1.78803
C          5.05853        -1.53417         1.71087
C          6.36710        -0.84414         1.47243
C          7.71527        -1.58713         1.41665
C          8.55562        -1.31825         0.09075
C          9.94829        -1.91230         0.36776
C         11.15615        -1.12310         0.15657
C         -9.77485        -3.15254         0.42442
C         -8.48072        -3.82515        -0.00783
C         -7.71959        -3.09221         1.07368
C         -6.41170        -3.74662         1.63904
C         -5.13885        -2.92298         1.22834
C         -3.85984        -3.53152         0.74968
C         -2.58900        -2.73235         0.86420
C         -1.29535        -3.48042         0.73648
C         -0.02525        -2.71679         0.88857
C          1.23001        -3.32526         0.34167
C          2.50811        -2.69691         0.78133
C          3.63773        -3.68098         1.08913
C          4.96665        -3.04057         1.56286
C          6.24997        -3.81757         1.44862
C          7.58843        -3.12163         1.55879
C          8.82973        -3.91513         1.31717
C         10.03980        -3.16066         0.89212
C         -8.40889        -5.17193        -0.16015
C         -7.57768        -5.96423         0.83986
C         -6.27880        -5.22276         1.20129
C         -4.99861        -5.77493         0.62993
C         -3.72858        -4.99770         0.52293
C         -2.53798        -5.59365         0.21767
C         -1.32449        -4.72614        -0.14321
C          0.01166        -5.45833        -0.20640
C          1.22858        -4.77121        -0.01917
C          2.46413        -5.41804        -0.26761
C          3.78745        -4.64420        -0.13695
C          4.97199        -5.58418         0.03316
C          6.20926        -5.17703         0.77334
C          7.47953        -5.89541         0.44812
C          8.78574        -5.42712         1.06798
C         -7.37828        -7.40324         0.45336
C         -6.23191        -7.87199        -0.11696
C         -5.19175        -6.84060        -0.42255
C         -3.35924        -8.10544         0.44236
C         -2.21741        -7.09357         0.24913
C         -1.30808        -7.43064        -0.96732
C          0.03026        -6.78132        -0.68822
C          1.24901        -7.45544        -0.89624
C          2.46411        -6.77123        -0.64398
C          3.72607        -7.44785        -1.05501
C          5.02911        -6.73414        -0.93424
C          6.35399        -7.43930        -1.22111
C          7.48409        -7.00480        -0.31938
C         -6.02671        -9.25361        -0.47325
C         -4.79490        -9.81887        -0.76438
C         -3.54195        -9.19084        -0.56338
C         -2.34476        -9.69122        -1.15855
C         -1.21950        -8.90983        -1.26004
C         -0.01301        -9.38224        -2.02012
C          1.28285        -8.80480        -1.48190
C          2.44250        -9.49109        -1.63066
C          3.70979        -8.95892        -1.00865
C          5.00896        -9.57603        -1.46336
C          6.18706        -8.93818        -1.39017
O         -3.33443        -2.69079        -0.38947
O          0.55369        -0.44478         0.07174
O          4.50716         0.73298        -0.40992
H          5.21503         0.85157        -1.09623
O         -5.63921         7.21778        -2.32185
O          9.15590         0.40864        -1.56808
H          3.29666        -3.38924        -1.59299
O         -3.18591         6.97981         1.08329
O         -7.32818        -1.08603         2.43857
O          9.88551        -5.81462         0.24738
H          9.76154        -5.42953        -0.64506
O          2.14393         8.02164         1.17260
O          3.05560         2.96554        -0.66220
H          3.78171         2.83927        -1.32566
O         -5.85279         2.47720        -1.74083
H         -5.42787         3.08620        -2.39360
O         -9.36958        -2.00629        -1.56580
H         -9.29337        -1.13635        -2.03991
O         -7.54951         3.25000         1.35891
O         -4.18803         0.02143         2.86586
O         -1.87195        -6.88958        -2.17912
O         -2.06038         1.33186         3.07612
O          4.27071        -6.68234        -2.18464
O          6.80177        -6.98445        -2.53388
H          5.98938        -6.85643        -3.07708
O         -2.30269         3.76094         2.65544
O         -9.13355        -3.16562         1.78649
O         -9.28177         0.61250        -2.25028
H         -9.83188         1.03501        -2.94273
O          3.54872         1.38410         3.03906
O          2.95280        -1.33346         2.84817
O         -9.39007         0.16185         1.36090
O          8.38735        -3.59032         2.69348
O          2.03421        -2.52621        -0.59286
O         -1.25435         6.01075         2.44508
H         -1.96943         5.65020         3.01664
O         -5.53865         2.69307         1.85721
O         -5.42034        -6.07657         1.99289
O         -1.40553        -7.27056         1.43417
H         -2.01903        -7.33198         2.20172
O          6.85535         1.31596        -1.37824
O         -0.54459        -3.55549         1.97185
O         -3.90683        -8.18521         1.53742
O          5.87466        -1.06645         2.83290
O          7.86586        -2.00678        -0.87744
O         -5.21362         4.78971        -2.10271
O         -8.42136        -5.99597         2.01116
H         -8.61302        -5.07026         2.29247
O          5.20184        -6.06029         1.39125
O          4.32646         8.98121         0.05683
O          4.85839         6.30209        -2.28445
O         -6.49191         0.48383        -0.67354
O          6.98286         4.75725         1.25068
O          1.41897         6.02436         2.24018
H          0.54341         6.13456         2.68321
H         -1.77994        -5.90016        -2.16751
O         -1.82761        -1.41500         2.85158
O         -6.46890        -3.70800         3.06194
H         -6.73657        -2.79572         3.32862
O         -0.73322         8.12314         1.17294
O          5.51059        -3.75982         2.70442
O          8.47836        -1.07656         2.49686
H          8.76066        -1.86087         3.03722
O         -4.63847        -6.75412        -1.50923
O         -2.98722         7.29851        -2.53445
O         10.22361         2.81128         0.96835
H         10.01971         3.76034         1.10117
O          2.14634         3.76402         2.71012
O         -0.85854         8.69999        -2.44741
H         -1.64540         8.16297        -2.77249
O          4.09116        -3.91208        -1.32956
O         -0.31170         5.14403        -0.89763
H          0.46756         5.32759        -1.48368
O          5.49071         3.35196         2.02376
H          6.26822         2.83839         2.36469
O          1.07338         0.52659         3.52838
H          1.95293         0.61541         3.96350
O          4.55285         5.75477         1.39937
O          3.11967        -4.45536         2.17894
H          3.89221        -4.82605         2.67181
O         -9.58466         5.29421        -1.70394
H         -9.08057         5.32508        -2.54279
O          5.40522         3.31337        -1.61981
H          5.92902         2.78047        -2.25830
O          7.00286         1.28349         2.26807
H          6.88111         0.69102         3.04715
O         -0.11654        10.69120         0.49881
H         -0.14185         9.96377         1.16638
O          3.61505        -9.25044         0.42548
H          3.71531       -10.21750         0.54696
O          0.03633       -10.80483        -2.08921
H          0.19384       -11.15565        -1.18901
O         -1.53637        -4.26930        -1.51507
H         -2.33420        -3.67845        -1.51341
O          2.19044         5.35921        -1.28454
H          2.39273         4.39453        -1.40813
H         12.11364        -1.63516         0.34192
H         12.10615         0.74414        -0.22004
H         10.72304         2.82743        -1.07065
H          9.57021         4.94574        -1.25554
H          8.08546         6.69916        -2.43313
H          6.74411         8.79712        -3.13573
H          4.81805        10.27408        -2.85747
H          2.42607        10.68708        -1.96913
H          0.11415        10.91920        -1.53695
H         -2.51455        11.00047        -0.96380
H         -4.94028        10.89384        -0.75648
H         -7.02938         9.63242        -0.54552
H         -8.27507         7.37859        -0.46923
H         -9.17638         5.13853         0.30837
H        -10.64533         3.07572        -1.40809
H        -12.04671         0.89905        -0.81990
H        -12.11259        -1.47434        -0.18803
H        -10.70676        -3.75998         0.39984
H         -9.26698        -5.69034        -0.61750
H         -8.19873        -8.09403         0.70201
H         -6.92349        -9.88688        -0.56277
H         -4.78723       -10.81897        -1.22783
H         -2.34240       -10.69933        -1.60515
H         -0.13596        -9.01023        -3.07720
H          2.43186       -10.48708        -2.10101
H          4.99070       -10.65222        -1.70361
H          7.10680        -9.48566        -1.65102
H          8.45144        -7.50352        -0.49372
H          8.92277        -5.93949         2.05553
H         11.02280        -3.62174         1.07643
