         424
 CSIRO Nanostructure Databank - Neutral Graphene Oxide Data Set
C          1.50742         2.01410        -1.33836
C          1.49296         3.42607        -1.38641
C          2.69774         1.31972        -1.28542
C          2.67753         4.16218        -1.33999
C          1.52872         6.35038        -1.92342
C          1.52091         7.73960        -1.95888
C          2.70391         5.62400        -1.52909
C          2.69172         8.49983        -1.76486
C          1.52310        10.68810        -1.94644
C          1.51318        12.07579        -1.89636
C          2.69972         9.93204        -1.69176
C          2.67448        12.81169        -1.60174
C          1.42564        14.99596        -1.44608
C          1.41037        16.36692        -1.29315
C          2.64959        14.26329        -1.45280
C          2.61570        17.09639        -1.11515
C          2.62324        18.51586        -0.94840
C          3.93872         2.02524        -1.23308
C          3.91931         3.46146        -1.21253
C          5.16830         1.34509        -1.20765
C          5.14631         4.17125        -1.05689
C          3.88306         6.32175        -1.34743
C          4.00125         7.75440        -1.80399
C          5.05746         5.63888        -0.70786
C          5.15079         8.50431        -1.18481
C          3.90241        10.63664        -1.36160
C          3.89746        12.08250        -1.34859
C          5.11110         9.90332        -1.07782
C          5.06869        12.79595        -1.06871
C          3.85199        14.97580        -1.27492
C          3.85065        16.38538        -1.10351
C          5.16073        14.24981        -1.43778
C          5.07447        17.10941        -0.88974
C          3.79748        19.20012        -0.74957
C          5.05315        18.51268        -0.69415
C          6.40279         2.05390        -1.20561
C          6.36725         3.49950        -1.05253
C          7.61649         1.38747        -1.36553
C          7.62639         4.21061        -0.91426
C          6.35426         6.39276        -0.84832
C          6.34174         7.77092        -0.86735
C          7.59774         5.64738        -0.42198
C          7.54885         8.50623        -0.31660
C          6.32698        10.62359        -0.74198
C          6.26001        12.08736        -0.60094
C          7.54383         9.98392        -0.57538
C          7.53963        12.84769        -0.37489
C          6.35188        14.98705        -0.87317
C          6.31971        16.40360        -0.78469
C          7.54331        14.31380        -0.59182
C          7.51853        17.11819        -0.51436
C          6.25998        19.20731        -0.38365
C          7.47785        18.54165        -0.28052
C          8.89556         2.12365        -1.61809
C          8.80694         3.57066        -1.17180
C         10.07843         1.42897        -0.96722
C         10.08167         4.30679        -1.14763
C          8.86183         6.42257        -0.71312
C          8.85306         7.83111        -0.63051
C         10.07627         5.74606        -0.85906
C         10.04830         8.56224        -0.70263
C          8.79808        10.70446        -0.53016
C          8.82001        12.11753        -0.46068
C         10.04414        10.01858        -0.61960
C         10.03115        12.82919        -0.40817
C          8.75186        15.02160        -0.39394
C          8.74319        16.41456        -0.40540
C          9.97900        14.26044         0.04975
C         10.02557        17.19467        -0.39064
C          8.67879        19.20161         0.18835
C          9.88662        18.54725         0.26332
C         11.26276         2.08489        -0.68102
C         11.36338         3.54447        -0.93942
C         12.43982         1.43483        -0.21175
C         12.54396         4.29266        -0.46792
C         11.30562         6.43770        -0.72198
C         11.29223         7.85936        -0.68964
C         12.53106         5.72187        -0.48614
C         12.51643         8.56779        -0.55799
C         11.25044        10.74445        -0.65322
C         11.27458        12.15838        -0.51418
C         12.54056        10.02423        -0.92527
C         12.53772        12.89295        -0.46329
C         11.26906        15.01132        -0.12766
C         11.23120        16.40001         0.04600
C         12.51058        14.32140        -0.22035
C         12.38607        17.08601         0.48503
C         11.06717        19.13716         0.83132
C         12.26122        18.45702         0.93619
C         13.65194         2.13256         0.00263
C         13.68569         3.58773        -0.08241
C         14.84286         1.45439         0.32320
C         14.89246         4.30224         0.21227
C         13.69718         6.44362        -0.13689
C         13.69226         7.88195        -0.21514
C         14.90311         5.73458         0.18753
C         14.89790         8.62135         0.02014
C         13.77375        10.76339        -0.47856
C         13.77004        12.18495        -0.50742
C         14.93569        10.00621        -0.17301
C         15.06792        12.91603        -0.56654
C         13.70555        15.07058         0.00703
C         13.62543        16.38648         0.53233
C         15.02551        14.48342        -0.29244
C         14.80342        17.07110         1.03182
C         13.40379        19.10552         1.68323
C         14.72666        18.38945         1.54934
C         16.06476         2.14534         0.53768
C         16.08258         3.59242         0.50406
C         17.26637         1.45385         0.75926
C         17.29371         4.30007         0.73719
C         16.09765         6.43670         0.48020
C         16.04206         7.92610         0.71541
C         17.29627         5.73849         0.73951
C         17.37964         8.61475         0.58507
C         16.27870        10.65036        -0.34440
C         16.29542        12.15025        -0.28122
C         17.44656         9.98241         0.33058
C         17.57164        12.68424        -0.34730
C         16.20465        15.19198         0.24598
C         16.06193        16.41954         0.97213
C         17.50885        14.74924         0.03138
C         17.24095        17.08509         1.42467
C         15.88192        19.04544         1.97379
C         17.14844        18.41993         1.91260
C         18.49514         2.14207         0.93429
C         18.50412         3.58460         0.95306
C         19.70908         1.44195         1.06299
C         19.72500         4.28608         1.15492
C         18.52599         6.44787         0.98240
C         18.56021         7.88104         0.89941
C         19.73416         5.72768         1.19288
C         19.79133         8.57825         1.05391
C         18.66756        10.69969         0.51575
C         18.73760        12.11375         0.28429
C         19.82911         9.99766         0.93684
C         19.85534        12.89206         0.72811
C         18.64036        15.14156         0.80354
C         18.51313        16.43368         1.39343
C         19.82723        14.34001         0.94535
C         19.68323        17.10920         1.83355
C         18.35566        19.12240         2.22044
C         19.58950        18.51322         2.14475
C         20.94120         2.12631         1.18608
C         20.94388         3.56676         1.25817
C         22.16722         1.42960         1.20951
C         22.17816         4.26492         1.39991
C         20.95929         6.42065         1.40519
C         20.98891         7.86030         1.36645
C         22.18478         5.69302         1.52710
C         22.18167         8.57045         1.59499
C         21.03432        10.72469         1.16830
C         21.02948        12.15849         1.15178
C         22.21597         9.98595         1.49998
C         22.20868        12.84084         1.58609
C         20.96444        14.99866         1.53176
C         20.89523        16.37690         1.88688
C         22.19912        14.27250         1.76735
C         22.10148        17.07646         2.36265
C         20.82349        19.38640         2.23627
C         22.10264        18.60558         2.45890
C         23.40089         2.11619         1.27737
C         23.40551         3.55440         1.40244
C         24.62886         1.43083         1.19330
C         24.63777         4.26028         1.48824
C         23.41200         6.37601         1.72306
C         23.37012         7.82151         2.14622
C         24.63798         5.68429         1.67888
C         24.67983         8.54167         1.96858
C         23.42677        10.69689         1.77548
C         23.39193        12.09367         1.85449
C         24.67806         9.94704         1.95520
C         24.59897        12.76296         2.46843
C         23.38509        14.95936         2.12906
C         23.39833        16.39930         2.23198
C         24.63510        14.26598         2.29201
C         24.57299        17.12913         2.28674
C         23.36659        19.27357         2.17669
C         24.57050        18.57163         2.13363
C         25.85846         2.12868         1.19850
C         25.86855         3.56040         1.37374
C         27.07818         1.45011         1.00919
C         27.10243         4.27090         1.39367
C         25.89465         6.38515         1.78480
C         25.90351         7.81837         1.95174
C         27.11380         5.69327         1.61820
C         27.14613         8.50953         2.05708
C         25.91423        10.63034         2.05921
C         25.89766        12.13289         1.92410
C         27.11963         9.92455         2.18198
C         27.12451        12.80383         2.53856
C         25.83583        14.95736         2.34613
C         25.89592        16.45337         2.50545
C         27.10199        14.27167         2.20608
C         27.03454        17.09176         1.74931
C         25.78230        19.22095         1.74446
C         26.96235        18.49598         1.45088
C         28.30120         2.15223         0.95484
C         28.31902         3.57821         1.16462
C         29.50806         1.47491         0.68325
C         29.55641         4.28962         1.11269
C         28.36997         6.39785         1.63875
C         28.40403         7.79812         1.92369
C         29.58265         5.70600         1.36025
C         29.65592         8.47066         1.97634
C         28.38865        10.63837         2.46561
C         28.39633        12.09237         2.17203
C         29.69037         9.88559         2.41025
C         29.48156        12.74125         1.69560
C         28.20648        14.92148         1.70831
C         28.17323        16.35099         1.44273
C         29.35344        14.12941         1.12207
C         29.30530        16.98096         0.81530
C         28.05946        19.10859         0.80045
C         29.20992        18.36992         0.45126
C         30.72955         2.17180         0.59816
C         30.75601         3.59680         0.82062
C         31.92751         1.49060         0.29877
C         31.99748         4.30293         0.74924
C         30.82476         6.41075         1.31051
C         30.86557         7.80995         1.62663
C         32.02884         5.71255         0.98665
C         32.13557         8.49332         1.59534
C         30.94852        10.68939         2.20297
C         30.82733        12.11374         1.73695
C         32.26896         9.93278         2.09407
C         31.91220        12.75610         0.95464
C         30.67248        14.90166         1.18888
C         30.49270        16.25884         0.54618
C         31.81745        14.07985         0.62023
C         31.51223        16.81961        -0.24216
C         30.29591        18.96590        -0.23818
C         31.41301        18.21264        -0.62510
C         33.16034         2.17430         0.23933
C         33.19994         3.59820         0.47546
C         34.34998         1.48390        -0.04772
C         34.44905         4.28433         0.46469
C         33.28246         6.40275         0.94416
C         33.30314         7.81599         1.26067
C         34.47539         5.68431         0.69209
C         34.61003         8.52342         1.22698
C         33.31182        10.70483         1.30364
C         32.99392        11.85929         0.38936
C         34.60588        10.07495         1.22545
C         34.20772        12.65458        -0.06410
C         32.80889        14.71051        -0.23530
C         32.64105        16.02900        -0.65507
C         34.02559        13.96900        -0.53903
C         33.55304        16.58538        -1.72051
C         32.49953        18.83180        -1.30265
C         33.60612        18.09920        -1.74799
C         35.60998         2.13959        -0.05474
C         35.67175         3.55687         0.23428
C         36.74961         1.41277        -0.42796
C         36.90345         4.26006         0.10455
C         35.81530         6.36348         0.89145
C         35.74562         7.84561         0.46920
C         36.96958         5.65544         0.21318
C         37.12286         8.53824         0.65651
C         35.75769        10.79026         0.58549
C         35.49751        12.05739        -0.12762
C         37.04296        10.03167         0.28070
C         36.58794        12.70796        -0.74114
C         35.10996        14.64650        -1.19143
C         34.92621        15.95593        -1.72455
C         36.39289        14.02398        -1.29066
C         35.96053        16.59801        -2.40243
C         34.68968        18.73035        -2.35991
C         35.82512        17.99613        -2.82608
C         38.07984         1.98700        -0.35047
C         38.15558         3.50917        -0.10404
C         39.22097         1.35465        -1.03042
C         39.33249         4.22712        -0.61177
C         38.16139         6.38643        -0.15014
C         38.19965         7.77164        -0.08628
C         39.33510         5.63934        -0.62983
C         39.41666         8.57251        -0.45936
C         37.95899        10.63423        -0.69466
C         37.82791        11.98698        -1.01999
C         39.01525         9.77684        -1.34719
C         38.89641        12.66117        -1.71723
C         37.45598        14.71131        -1.92502
C         37.24217        15.96476        -2.53995
C         38.85135        14.16670        -1.80116
C         38.28160        16.62449        -3.26641
C         36.80320        18.59540        -3.58374
C         37.93647        17.79899        -4.14743
C         40.35568         2.05224        -1.27871
C         40.44724         3.48591        -1.07850
C         41.60751         4.18191        -1.47479
C         40.50394         6.31914        -1.06090
C         40.50267         7.76945        -1.15371
C         41.63614         5.56694        -1.45042
C         41.46986         8.45770        -1.83276
C         40.23462        10.56867        -1.78537
C         40.09525        11.99526        -2.04524
C         41.39195         9.87913        -2.02456
C         41.15166        12.71874        -2.65880
C         39.83941        14.76799        -2.76827
C         39.60048        16.08966        -3.30816
C         40.99925        14.05332        -3.05243
C         40.63535        16.85495        -3.88781
C         39.12024        18.65859        -4.47627
C         40.39066        18.16391        -4.37939
O          6.70211        12.49769         0.78825
O         10.95728         3.95715        -2.29868
O         17.76169        13.88699        -1.03507
O         22.00530        17.77928         3.66411
O         29.04110        10.16844         3.69446
O         15.13301        13.91499        -1.62959
O         38.42950         2.55770         0.96622
O         35.00396         9.26559         2.39427
O         31.13743        11.78316         3.15452
O         36.91261        10.88055         1.48217
O          9.11298         2.11106        -3.07261
H          9.87985         2.71531        -3.23328
O         32.41129        11.25359        -0.84052
H         32.19248        11.99247        -1.44946
O         15.70901         8.05910         2.15578
H         16.38559         7.55622         2.65825
O         32.93189        16.18976        -2.99641
H         33.49041        16.55719        -3.71486
O         25.97812        12.43008         0.49982
H         25.19498        12.02826         0.06600
O         39.99185         9.09363         0.77067
H         39.34386         8.95934         1.50239
O         16.54600        10.38781        -1.79376
H         16.03833        11.05130        -2.31073
O         37.46664        17.21374        -5.44246
H         38.24357        16.78043        -5.85657
O         35.45053         7.92416        -0.94152
H         34.70278         7.32044        -1.13819
O         39.31143        14.62948        -0.45903
H         40.18745        14.21595        -0.30070
O         20.68623        20.35125         3.28778
H         20.81951        19.87544         4.13485
O          7.40872         8.36625         1.15962
H          6.62047         8.88657         1.42903
O         27.05597        12.68067         3.98865
H         27.94807        12.86223         4.35451
O         13.53547        20.48649         1.31670
H         13.82350        20.52899         0.38216
O         12.66218        10.01695        -2.41304
H         13.47111         9.50625        -2.63333
O          4.34770         7.66098        -3.25543
H          3.58228         7.23902        -3.70254
O         29.04639        13.95757        -0.29245
H         28.15071        13.55959        -0.35797
O          5.41331        14.24088        -2.90614
H          5.41621        15.17660        -3.20267
O         10.30430        17.48616        -1.81303
H         11.10807        18.04748        -1.84236
O         38.41497         9.20837        -2.55119
H         38.20952         9.94616        -3.16267
O          4.79119         5.66359         0.74492
H          5.63867         5.38838         1.17954
O         32.73599         9.78305         3.46123
H         32.53998        10.63113         3.92068
O          9.83644        14.16447         1.51958
H          9.01090        13.66379         1.70134
O         23.14520         7.78351         3.60954
H         23.93944         7.37668         4.01699
O         30.93627        15.12296         2.59789
H         31.78726        15.60032         2.68312
O         36.06033         6.28622         2.31701
H         36.79935         6.91004         2.52942
O         37.52772         8.48399         2.05130
H         37.02444         9.20740         2.51127
O         26.21112        16.67812         3.93628
H         25.42543        16.39822         4.45335
O         24.44994        12.50290         3.88515
H         25.31518        12.68762         4.32355
O          7.52081         5.56736         1.05193
H          7.56096         6.50704         1.37416
H          0.55368         1.46875        -1.36949
H          0.52315         3.93635        -1.46243
H          2.70515         0.22037        -1.27988
H          0.58616         5.81362        -2.09472
H          0.55539         8.24483        -2.10469
H          0.58973        10.17135        -2.20663
H          0.56880        12.59662        -2.10521
H          0.47061        14.46700        -1.56697
H          0.45355        16.90900        -1.30016
H          1.66545        19.05601        -0.97203
H          5.18132         0.24592        -1.25710
H          3.78483        20.29091        -0.60976
H          7.61764         0.29125        -1.46995
H          6.21159        20.28878        -0.18581
H         10.01415         0.34291        -0.79821
H          8.59508        20.23873         0.54938
H         12.42535         0.34277        -0.07714
H         11.00306        20.15889         1.23621
H         14.83807         0.35530         0.37714
H         13.13019        19.10469         2.77728
H         17.26482         0.35361         0.76457
H         15.80407        20.07674         2.34744
H         19.70520         0.34235         1.02965
H         18.30249        20.19099         2.47567
H         22.16575         0.33230         1.13118
H         20.90892        19.96454         1.27528
H         24.63206         0.33698         1.07713
H         23.34120        20.33199         1.87724
H         27.07528         0.35993         0.86325
H         25.75788        20.30293         1.54616
H         29.49351         0.38718         0.52129
H         28.00311        20.17467         0.53435
H         31.90294         0.40518         0.12324
H         30.24873        20.03370        -0.49854
H         34.31050         0.40364        -0.25034
H         32.47975        19.92234        -1.45263
H         36.63017         0.39576        -0.83097
H         34.66910        19.82183        -2.50306
H         39.13728         0.29671        -1.32027
H         36.72242        19.66298        -3.83766
H         41.21593         1.55118        -1.74729
H         42.48776         3.61761        -1.81449
H         42.55832         6.08221        -1.75028
H         42.32392         7.93534        -2.28677
H         42.27974        10.38219        -2.43247
H         42.08441        12.20557        -2.92427
H         41.79623        14.50911        -3.65717
H         41.66840        16.48319        -3.87782
H         38.94090        19.66574        -4.87991
H         41.24808        18.77950        -4.68894
