         280
 CSIRO Nanostructure Databank - Neutral Graphene Oxide Data Set
C         30.35067        31.84337        -1.49782
C         30.33066        33.02776        -1.13788
C         30.24224        36.09428         0.33577
C         30.26172        37.21415         0.84546
C         30.19798        40.43346         1.03816
C         30.13100        41.64929         0.86984
C         32.77848        29.00437        -1.63645
C         31.75130        29.64220        -1.88037
C         32.65535        31.62034        -0.80406
C         31.61151        31.12763        -1.91778
C         32.62675        33.11249        -0.45305
C         31.31962        33.88953        -0.48535
C         32.62591        36.10278        -0.13143
C         31.31235        35.38309        -0.38199
C         32.70949        37.22828         0.96042
C         31.40207        38.07138         1.19372
C         32.63005        40.38010         0.90397
C         31.36959        39.56329         1.21889
C         32.53704        41.79394         0.32704
C         31.01638        42.69954         0.34735
C         32.52761        44.45938         0.97481
C         31.42062        43.87661         1.20084
C         35.46712        27.13492        -0.58690
C         35.22191        28.54831        -0.93048
C         33.87607        29.16450        -0.63236
C         35.15707        31.46844         0.07737
C         33.85140        30.77435        -0.40922
C         35.18200        33.00303        -0.23041
C         33.94103        33.82295        -0.48710
C         35.20600        36.03849        -0.03906
C         33.92441        35.34321        -0.35400
C         35.25615        37.46994         0.44480
C         33.98376        38.13530         0.85599
C         35.12187        40.39566         0.08578
C         33.93609        39.65005         0.78305
C         35.09128        41.86990         0.59220
C         33.80469        42.58992         0.25176
C         35.03519        44.80826         0.38377
C         33.79289        44.06126         0.54831
C         35.29156        46.21221         0.70493
C         37.83152        27.10163        -0.04279
C         36.53174        26.53017        -0.44446
C         37.78616        28.60409        -0.23400
C         36.50616        29.31593        -0.69019
C         37.72372        31.58497        -0.57816
C         36.42959        30.82829        -0.54893
C         37.74775        33.01710        -0.10229
C         36.45324        33.72843         0.15806
C         37.72320        36.02326         0.12958
C         36.44818        35.24821         0.24455
C         37.73710        37.52695        -0.08375
C         36.40250        38.27465        -0.18041
C         37.63320        40.36442         0.64248
C         36.47477        39.71310         0.34083
C         37.66887        41.82843         0.95344
C         36.37605        42.60073         0.78608
C         37.71571        44.83556         0.65568
C         36.41726        44.06773         0.47716
C         37.73337        46.37043         0.73438
C         36.34441        46.83466         0.86027
C         40.38346        24.84103         1.58646
C         39.62869        25.57600         0.95520
C         40.32144        27.22154        -0.61709
C         39.11863        26.32939        -0.24276
C         40.34177        28.58475        -0.67613
C         39.09690        29.35825        -0.34282
C         40.31473        31.58812        -0.83112
C         39.05163        30.85088        -0.46004
C         40.28349        33.09309        -0.64821
C         38.97930        33.80582        -0.44590
C         40.25884        36.00246         0.19888
C         39.00035        35.29817        -0.17132
C         40.18898        37.38156         0.86819
C         38.99093        38.21556         0.35407
C         40.25307        40.36938         1.02231
C         38.93655        39.64388         0.82643
C         40.37173        41.90023         1.29897
C         38.97285        42.57565         1.11027
C         40.26489        44.79953         0.65319
C         38.98889        44.08625         0.99689
C         40.19915        46.30495         0.47675
C         38.99968        47.03390         1.24239
C         40.29645        49.09172         0.63182
C         39.26591        48.46598         0.88360
C         42.75921        24.68676         1.57307
C         41.54409        24.24049         2.14992
C         42.90003        27.08076        -0.69131
C         41.55132        26.41757        -0.81871
C         42.95571        28.58426        -0.80133
C         41.63376        29.31870        -0.91787
C         42.92016        31.59330        -0.64528
C         41.61519        30.84020        -0.89230
C         42.84799        33.04497        -0.24685
C         41.51379        33.74277        -0.05657
C         42.76046        35.93485         0.80262
C         41.47815        35.15992         0.45548
C         42.72319        37.36322         0.23883
C         41.46315        38.14076         0.46137
C         42.83407        40.34949         0.50904
C         41.54948        39.61463         0.78037
C         42.83322        41.85174         0.31143
C         41.57856        42.62529         0.62380
C         42.59758        44.71477        -0.50004
C         41.30852        43.94296        -0.11562
C         42.67309        46.20923        -0.35208
C         41.46818        47.02771         0.13672
C         42.86867        48.99412        -0.07710
C         41.67551        48.50073         0.69067
C         43.54392        25.24131         0.80578
C         45.33642        27.05013         0.16390
C         44.04266        26.30590        -0.05504
C         45.39679        28.57075         0.06583
C         44.05457        29.31900        -0.00064
C         45.41271        31.52157         0.18611
C         44.20192        30.80424        -0.35716
C         45.33660        32.98166         0.53951
C         43.95106        33.65125         0.61625
C         45.29611        35.89936         0.20089
C         44.00536        35.16073         0.35553
C         45.31221        37.39488         0.33007
C         44.02842        38.10655         0.00588
C         45.33381        40.36918        -0.10545
C         44.03651        39.60029        -0.01949
C         45.18531        41.65999        -0.86704
C         43.87750        42.42169        -0.62817
C         45.11029        44.61922        -1.28635
C         43.82650        43.89563        -0.89571
C         45.24070        46.06533        -0.79009
C         44.05671        46.84476        -0.33123
C         43.87271        48.29349        -0.25641
C         47.59054        27.13959         1.01149
C         46.50101        26.56119         0.92307
C         47.91083        28.55930         0.81934
C         46.56844        29.29519         0.73171
C         47.88150        31.55040         1.07170
C         46.57054        30.78875         0.82099
C         47.96695        33.04314         0.74973
C         46.63658        33.74215         0.54961
C         47.93729        35.90921        -0.02700
C         46.62818        35.18203         0.13864
C         47.93069        37.38821         0.28984
C         46.60948        38.13912         0.25591
C         47.82255        40.14052        -0.87721
C         46.62305        39.61618        -0.12202
C         47.76699        41.50044        -1.67053
C         46.41035        42.30718        -1.48682
C         47.70786        44.54264        -1.49231
C         46.39182        43.82822        -1.64034
C         47.48794        45.90176        -1.34343
C         46.48127        46.68038        -1.32679
C         50.47946        28.78453         1.54015
C         49.19284        29.29078         1.01811
C         50.49918        31.59224         1.21785
C         49.18066        30.81245         1.24673
C         50.53990        32.88245         0.35506
C         49.27900        33.75224         0.53553
C         50.54922        35.96352         0.03457
C         49.28535        35.10621        -0.19904
C         50.51000        37.46386         0.11324
C         49.19094        38.17699         0.23056
C         50.38510        40.33952        -0.44776
C         49.13652        39.50331        -0.50331
C         50.41617        41.63311        -1.26004
C         49.08696        42.32333        -1.58184
C         50.30030        44.43246        -1.23020
C         48.99911        43.86748        -1.60608
C         51.54165        29.41975         1.54304
C         52.96021        31.60209         0.96678
C         51.82479        30.84940         1.52046
C         52.95416        32.81538         0.73151
C         51.81810        33.74438         0.64983
C         52.90338        36.20910         0.42767
C         51.80946        35.23040         0.51080
C         52.88278        37.44171         0.39012
C         51.67863        38.30123         0.72379
C         52.80400        40.55981        -0.13088
C         51.62322        39.74645         0.22250
C         52.76127        41.76088        -0.44233
C         51.74773        42.47208        -1.21742
C         51.40918        43.89183        -1.20036
O         51.35800        41.73397        -2.37265
O         37.71015        27.96608         1.09254
O         33.55296        40.29563         2.02975
O         39.81902        35.96420        -1.16989
O         45.74979        27.74274        -1.05050
O         38.18169        42.17052         2.27943
O         41.83452        37.67169        -0.86405
O         38.67759        38.06229        -1.05505
O         35.51469        42.19658         1.92196
O         48.38874        31.21289         2.39227
O         31.89294        36.24947        -1.38257
O         37.14710        35.71488         1.43517
O         48.68254        33.76065         1.82958
O         48.48698        39.19136        -1.76593
O         40.39584        46.86834        -0.83150
O         42.72292        42.66346         1.51361
O         43.81187        26.23961        -1.47665
O         39.25397        30.22399         0.84309
O         48.79186        28.87349        -0.29655
O         51.63990        34.59951         1.79982
O         48.60491        37.86716         1.51312
O         34.77169        33.33497        -1.58142
O         51.13836        31.61139         2.52260
O         44.47744        35.50119        -0.96056
O         36.02591        28.95674        -2.03849
O         43.16736        32.67443        -1.59346
O         34.98007        40.41951        -1.27949
O         47.14635        35.52857        -1.18389
O         45.50967        44.38854        -2.65735
O         46.24021        40.46129         1.02090
O         33.13442        42.05018        -0.95693
O         37.22849        33.15601         1.24661
O         49.18068        43.09606        -2.81365
O         39.52170        39.76977         2.15857
O         34.99590        37.70283         1.83665
O         32.69592        30.93656         0.47513
O         35.77710        44.38144        -0.79023
O         37.93021        45.70522        -0.51542
O         44.96667        46.22717         0.62592
O         39.54144        33.61731        -1.78079
O         43.36627        42.92577        -1.88468
O         50.78953        36.81261        -1.14574
O         36.93421        31.42615        -1.78105
O         45.29055        31.18912        -1.23233
O         41.49561        25.22130        -1.08276
O         45.92561        37.90587         1.53494
O         42.35356        45.60949        -1.63670
O         45.95116        33.39445         1.80045
O         45.43006        41.59210        -2.29256
O         34.73746        35.94469        -1.40951
O         42.47515        28.98952        -2.09026
O         31.44588        38.78603         2.43641
O         41.22858        34.05058         1.35802
O         31.83748        33.32926         0.75359
O         43.94666        38.83162        -1.25727
O         42.50700        39.90097         1.85091
O         39.92050        44.54399         2.03914
O         46.15751        29.96471         1.96254
O         50.68246        40.55636         0.98212
O         40.91407        31.26240        -2.10801
O         42.02616        48.37950         2.05188
H         42.31130        49.25142         2.39619
O         40.65173        43.56513        -1.33776
H         40.81178        44.27746        -2.00065
O         41.50995        23.35383         3.14521
H         40.59131        23.16426         3.42170
O         49.36999        34.72036        -1.58535
H         49.53021        35.53139        -2.12220
O         43.52779        29.29243         1.35413
H         44.24045        29.60353         1.96882
O         39.06998        46.88840         2.63782
H         39.89044        47.30659         2.97370
O         43.51014        33.40802         1.96402
H         44.25816        33.60539         2.57425
O         47.76047        41.11927        -3.04573
H         46.84890        40.85652        -3.30393
O         30.73634        43.06023        -0.94906
H         31.57898        43.11585        -1.46026
O         42.81723        36.08222         2.22859
H         42.40910        35.28105         2.63092
O         50.56485        32.40603        -0.99189
H         50.29329        33.13698        -1.60178
O         35.25062        31.25573         1.48182
H         34.35143        31.32569         1.87178
O         40.67300        42.01208         2.68578
H         39.90024        41.66669         3.18663
O         36.06798        38.33848        -1.56906
H         36.76540        38.83398        -2.04936
O         33.50114        28.57957         0.59322
H         32.66330        28.99833         0.89368
O         32.86611        36.43206         2.14005
H         32.94602        37.03502         2.91165
O         40.09636        37.16886         2.26983
H         39.99801        38.04507         2.71602
O         38.87144        25.39807        -1.28214
H         39.71721        24.91943        -1.47005
O         51.48843        38.30158         2.11726
H         51.94311        39.06791         2.52273
O         32.05834        31.63237        -3.14122
H         31.50176        31.29186        -3.87079
