         294
 CSIRO Nanostructure Databank - Neutral Graphene Oxide Data Set
C          1.20223         2.04479         0.01134
C          1.17094         3.38297         0.30294
C          2.43452         1.32766        -0.01706
C          2.45205         4.02658         0.76275
C          1.22807         6.36225         1.00566
C          1.23763         7.71809         0.90492
C          2.46149         5.56145         0.91679
C          2.44136         8.49298         0.64974
C          1.16827        10.71879         0.62368
C          1.12140        12.06371         0.54369
C          2.42726         9.97097         0.58018
C          2.36447        12.87037         0.25892
C          1.31731        14.98450         1.29341
C          1.39114        16.37011         1.54537
C          2.39954        14.27943         0.78829
C          2.38749        17.16077         0.86345
C          2.54404        18.61483         1.04826
C          3.65158         2.02597        -0.09626
C          3.53871         3.53681        -0.25528
C          4.89792         1.41138         0.03556
C          4.85872         4.20896        -0.11739
C          3.69359         6.34944         0.53891
C          3.62015         7.82029         0.43307
C          4.85989         5.70889        -0.19127
C          4.90273         8.56353         0.12195
C          3.60722        10.66472         0.53191
C          3.63746        12.15220         0.75304
C          4.92053         9.95965         0.78095
C          4.84211        12.84807         0.15287
C          3.75435        14.94973         0.85893
C          3.66848        16.38772         0.41928
C          4.88879        14.21436         0.16511
C          4.93116        17.08791         0.33935
C          3.71226        19.23906         0.77568
C          4.94995        18.52878         0.45908
C          6.14171         2.12236        -0.09525
C          6.01388         3.48907        -0.75664
C          7.33866         1.61342         0.32499
C          7.32738         4.27543        -0.75486
C          6.16936         6.24166         0.42951
C          6.16886         7.77488         0.49996
C          7.40276         5.67779        -0.26625
C          7.45884         8.51600         0.31841
C          6.15996        10.73761         0.27423
C          5.96825        12.06294        -0.40458
C          7.43689        10.00470         0.06584
C          7.11996        12.75545        -1.09837
C          6.05231        14.95294        -0.26675
C          6.08369        16.32972        -0.02052
C          7.02857        14.30740        -1.26411
C          7.29112        17.11815        -0.38783
C          6.14183        19.20915         0.38902
C          7.42254        18.42616         0.41691
C          8.66277         2.32166         0.15649
C          8.57067         3.41685        -0.92984
C          9.79811         1.33722        -0.23878
C          9.88506         4.22325        -0.99677
C          8.73986         6.28901         0.13768
C          8.68806         7.79753        -0.02147
C          9.92723         5.65515        -0.58077
C          9.85050         8.53058        -0.29383
C          8.53730        10.57345        -0.79322
C          8.44505        11.99031        -1.31828
C          9.84087         9.89661        -0.63423
C          9.73112        12.71173        -1.87524
C          8.43426        14.99763        -1.38697
C          8.48217        16.47804        -1.03661
C          9.73428        14.26363        -1.69385
C          9.82965        17.22379        -1.15708
C          8.62509        19.13664        -0.08549
C          9.89264        18.40069        -0.04124
C         11.13700         2.07359        -0.28528
C         11.19027         3.43729        -0.89227
C         12.19524         1.57761         0.39398
C         12.48248         4.19600        -0.76007
C         11.10291         6.33775        -0.50386
C         11.12392         7.77246        -0.00687
C         12.43604         5.69303        -0.65378
C         12.39080         8.46511        -0.53256
C         11.08277        10.50595        -1.26155
C         11.09205        12.03181        -1.49188
C         12.27414        10.00911        -0.39583
C         12.37505        12.80342        -1.26269
C         11.12340        15.01894        -1.73826
C         11.10172        16.41080        -1.05382
C         12.33642        14.27457        -1.23717
C         12.29175        17.08326        -0.88447
C         11.09266        19.30324        -0.34198
C         12.34716        18.47831        -0.45382
C         13.50783         2.29828         0.61385
C         13.73634         3.40031        -0.41856
C         14.72911         1.34880         0.57985
C         14.92343         4.23533         0.02399
C         13.54822         6.30296         0.18845
C         13.56062         7.83088         0.19194
C         14.90244         5.65326         0.01013
C         14.82113         8.59184         0.23279
C         13.59030        10.76024        -0.53218
C         13.62423        12.10690        -0.79678
C         14.79055        10.07905         0.01123
C         14.88932        12.85691        -0.78245
C         13.66192        14.94945        -1.54642
C         13.60373        16.44759        -1.22010
C         14.91106        14.25667        -1.00454
C         14.87279        17.16093        -0.85583
C         13.51235        19.10899        -0.11977
C         14.79992        18.48433        -0.20204
C         16.05071         2.11674         0.67533
C         16.07972         3.55108         0.40574
C         17.17919         1.47676         1.08669
C         17.31528         4.28805         0.53734
C         16.09041         6.38811         0.15257
C         16.07998         7.85726        -0.17665
C         17.32792         5.71324         0.28804
C         17.36363         8.60710         0.08002
C         16.11460        10.78705        -0.03613
C         16.12218        12.18982        -0.51115
C         17.36345         9.98090        -0.03863
C         17.34515        12.87515        -0.53715
C         16.14216        14.96977        -0.92699
C         16.15538        16.42411        -0.76650
C         17.37159        14.26908        -0.75170
C         17.28700        17.10923        -0.38705
C         15.93469        19.11089         0.23053
C         17.23165        18.48336         0.11317
C         18.44515         2.22250         1.42643
C         18.48831         3.60030         0.83069
C         19.73906         1.45940         1.26017
C         19.79285         4.25972         0.69296
C         18.55806         6.44722         0.21152
C         18.58018         7.82826         0.01977
C         19.84153         5.71730         0.36139
C         19.85791         8.53290        -0.23411
C         18.62854        10.69371        -0.44080
C         18.61930        12.18481        -0.06668
C         19.88209        10.00071         0.15433
C         19.86891        12.84923        -0.61654
C         18.63613        14.98151        -0.56092
C         18.65439        16.49121        -0.55047
C         19.82638        14.32246        -0.40925
C         19.63840        17.02935         0.50636
C         18.34554        19.15725         0.54390
C         19.72831        18.57174         0.46164
C         20.88721         2.01081         0.84534
C         20.96176         3.39015         0.23209
C         22.24301         4.16431         0.46906
C         21.10840         6.22333        -0.35091
C         21.16681         7.76754        -0.33385
C         22.30589         5.48204         0.21686
C         22.37008         8.53790        -0.02743
C         21.18492        10.67816        -0.21636
C         21.18240        12.12619        -0.51378
C         22.36476         9.92950        -0.10521
C         22.39945        12.96045        -0.33078
C         20.96337        14.86294         0.42840
C         21.04791        16.39866         0.42209
C         22.29693        14.23256         0.07787
C         21.87530        16.94473         1.55792
C         20.63105        19.04094         1.56956
C         21.64933        18.22802         2.05014
O          2.63895        16.71257        -0.52758
O          6.91399         8.20278         1.67794
O         15.34120        10.71242         1.22215
O          7.28835         5.41991        -1.69139
O         18.74530        12.38875         1.34036
O         20.09290         5.25738         1.73291
O          7.47389        17.22231        -1.81556
O         11.99973        12.29431        -2.61301
O         12.76669         5.06750        -1.91046
O         14.05598         8.30969         1.47776
O         20.49362        12.38159        -1.83214
O          6.05768        12.09259        -1.85488
O          8.90700        14.83556        -2.75990
O          3.49068         5.91587         1.93575
O         16.07285         7.86589        -1.60683
O         14.32556        17.22223        -2.24465
O         10.60020         3.77397        -2.18987
O         20.45208         8.29763        -1.54157
O          7.22217        10.79607         1.28658
O          8.17422        10.83375        -2.18142
O         13.85210        14.84769        -3.00740
H         14.32341        15.67869        -3.26854
O          9.06559         2.91099         1.41458
H          8.41075         3.59031         1.68573
O         14.62888         0.42437         1.66114
H         14.35218         0.94057         2.44892
O         20.80826         3.16675        -1.19234
H         20.93595         4.03356        -1.65475
O          8.94690         5.99686         1.55852
H          8.14638         6.33190         2.03623
O          4.99656         9.87243         2.21926
H          5.94259         9.67460         2.44127
O         11.86302        10.29744         0.96420
H         12.46897         9.80852         1.56975
O          2.76343         3.45993         2.05275
H          3.37098         4.09207         2.50156
O         11.27791        15.36584        -3.14513
H         12.18380        15.06361        -3.42843
O         14.12346         2.74217        -1.65004
H         14.05138         3.41407        -2.36501
O         19.09184        16.70647         1.79839
H         19.41705        15.80291         2.05154
O         21.73265        16.76702        -0.79327
H         21.55321        17.73000        -0.95288
O         21.00796         5.82990        -1.74452
H         20.57394         6.57742        -2.22552
O          6.37509        14.55250        -2.52030
H          7.04643        14.48145        -3.23411
O         13.18672         5.86985         1.54675
H         13.44324         6.61093         2.14928
O         19.80216        10.05924         1.59139
H         19.40274        10.96235         1.81994
O          9.67068        12.47622        -3.29451
H          9.13501        13.19623        -3.69824
O         12.65706         8.05953        -1.87988
H         12.07169         8.54807        -2.50701
O         18.63497        10.61956        -1.87638
H         18.53083         9.68424        -2.15471
O          7.60196        17.98246         1.81029
H          7.38769        18.73934         2.39562
O         11.09568         9.96136        -2.60717
H         10.60021        10.58865        -3.18651
O          4.11710        15.01374         2.27526
H          4.06817        14.08029         2.60878
O          9.86991        17.81070        -2.46427
H         10.10073        17.08708        -3.09637
O          3.68997        12.31628         2.20940
H          4.20343        11.54481         2.56576
O         19.12735        16.91350        -1.87195
H         18.60722        16.42930        -2.54799
O         20.57488        14.42710         1.77261
H         19.93398        13.64205         1.69086
O         13.47371         2.89122         1.93962
H         13.17613         3.83058         1.87556
O          4.75567         6.14306        -1.57609
H          5.49668         5.70197        -2.06775
O          9.83766         0.27583         0.70500
H          9.85765         0.68324         1.59690
O         10.87631        20.07777        -1.51835
H         10.66802        19.45004        -2.25296
O          2.48892        12.96222        -1.18753
H          1.82645        13.60246        -1.52083
O         18.35410         2.46622         2.88234
H         17.52521         2.96301         3.05206
O          8.36807         2.71851        -2.18431
H          9.15332         2.92992        -2.75240
O          6.24871         5.72340         1.77854
H          5.40603         5.94142         2.24232
O         10.15283        17.73163         1.19119
H          9.30535        17.66074         1.70070
O          2.99375         3.87721        -1.55504
H          3.72109         3.73361        -2.20656
O         11.22393         7.72950         1.44171
H         10.47870         7.16720         1.77015
O          4.97652         8.81319        -1.29792
H          4.80650         7.95111        -1.75875
O         20.33003        19.02813        -0.79351
H         19.78691        18.63436        -1.52100
O          5.67544         3.25832        -2.16620
H          6.51397         2.94418        -2.59007
H          0.26667         1.50324        -0.19422
H          0.22639         3.94478         0.25737
H          2.42571         0.22708        -0.02239
H          0.26749         5.84096         1.13006
H          0.27953         8.24871         0.99423
H          0.22896        10.16046         0.74340
H          0.14615        12.57429         0.54972
H          0.38051        14.45674         1.53366
H          0.66218        16.85924         2.20742
H          1.67727        19.19267         1.40354
H          4.93638         0.33048         0.25087
H          3.78407        20.33058         0.89671
H          7.35793         0.65518         0.86882
H          6.17320        20.30510         0.47566
H          9.56479         0.89882        -1.24184
H          8.49636        19.82456        -0.93701
H         12.07375         0.60884         0.90603
H         11.20764        20.02329         0.50853
H         14.71440         0.76306        -0.37362
H         13.47047        20.15080         0.23307
H         17.11999         0.41315         1.36528
H         15.87156        20.11258         0.68121
H         19.73612         0.42295         1.63243
H         18.23295        20.18315         0.92892
H         21.80144         1.39714         0.81063
H         23.13193         3.63058         0.83945
H         23.25202         6.02279         0.36840
H         23.31070         8.01599         0.19742
H         23.33377        10.45145        -0.07556
H         23.38450        12.52575        -0.56146
H         23.20297        14.84679         0.19061
H         22.71887        16.35389         1.94542
H         20.49712        20.05363         1.97938
H         22.29998        18.61045         2.85195
