         232
 CSIRO Nanostructure Databank - Neutral Graphene Oxide Data Set
C        -11.11025         0.58471        -0.41157
C         -9.87025         1.32388        -0.27076
C         -8.63227         0.59916        -0.22057
C         -7.38392         1.30625        -0.08428
C         -6.20190         0.50608        -0.16028
C         -4.66288         1.42221         1.56602
C         -3.91777         0.67917         0.41413
C         -2.62430         1.46609         0.02281
C         -1.31643         0.72469         0.25075
C         -0.06719         1.39655        -0.32345
C          1.19193         0.64680         0.08366
C          2.45957         1.43977         0.26536
C          3.69387         0.67155        -0.11086
C          4.91570         1.39214        -0.35226
C          6.17629         0.64308        -0.44989
C          7.42378         1.34463        -0.34160
C          8.62549         0.67541        -0.21543
C          9.81909         1.37693         0.22326
C         10.98044         0.56716         0.53127
C         -9.84427         2.70678        -0.19559
C         -8.63011         3.42250         0.05384
C         -7.40121         2.70327         0.23325
C         -6.26771         3.45463         0.85088
C         -4.91277         2.85360         1.09514
C         -3.76077         3.57103         0.92552
C         -2.49035         2.81430         0.76449
C         -1.19533         3.55919         0.58156
C         -0.00905         2.87552         0.02260
C          1.19749         3.55083        -0.16918
C          2.38958         2.81880        -0.32293
C          3.59686         3.41029        -0.98349
C          4.90671         2.76001        -0.58041
C          6.23427         3.46226        -0.83268
C          7.30007         2.79342         0.04010
C          8.61591         3.53240         0.10446
C          9.80912         2.76213         0.33238
C         -8.67390         4.83651         0.01611
C         -7.49620         5.62965         0.07156
C         -6.30068         4.97068         0.65324
C         -5.02065         5.75472         0.65398
C         -3.70361         5.04404         0.86213
C         -2.40802         5.72798         0.58285
C         -1.22492         5.04984         0.54373
C          0.07254         5.77962         0.38991
C          1.38170         5.02211         0.16380
C          2.42753         5.75553        -0.69812
C          3.63676         4.94782        -1.01678
C          4.97775         5.67772        -0.95086
C          6.19134         4.94770        -0.56101
C          7.30831         5.61815        -0.09666
C          8.55543         4.90672         0.14399
C         -7.49488         6.97647        -0.24326
C         -6.24773         7.76210        -0.55427
C         -4.96412         7.03716        -0.12511
C         -3.69973         7.81203        -0.02620
C         -2.45976         7.24802         0.64387
C         -1.27349         7.91880        -0.00174
C          0.02258         7.23129         0.04585
C          1.11723         7.88862        -0.76911
C          2.43536         7.12883        -0.80328
C          3.67936         7.92906        -1.01198
C          4.98589         7.17482        -0.85382
C          6.13159         7.79945        -0.15269
C          7.23153         7.04645         0.16252
C         -6.22761         9.20376        -0.07835
C         -5.07704         9.91152        -0.00127
C         -3.75881         9.29925        -0.10980
C         -2.58751        10.00203        -0.12877
C         -1.29980         9.31393        -0.17258
C         -0.07972        10.02512        -0.25535
C          1.17827         9.35501        -0.38594
C          2.37164        10.01123        -0.25780
C          3.67987         9.44957        -0.73589
C          4.85036         9.88695         0.12341
C          5.98585         9.17611         0.29006
C        -11.13437        -0.77166        -0.50091
C         -9.91106        -1.55148        -0.47671
C         -8.65813        -0.81865        -0.28084
C         -7.48398        -1.53473         0.00031
C         -6.24684        -0.87193         0.10888
C         -5.02261        -1.60073         0.40202
C         -3.80718        -0.83349         0.45368
C         -2.58296        -1.49430         0.45242
C         -1.30139        -0.74662         0.42521
C         -0.06962        -1.49535        -0.05013
C          1.21522        -0.72288         0.16727
C          2.47231        -1.44517         0.25291
C          3.68014        -0.71657         0.03776
C          4.97005        -1.43106         0.02597
C          6.16379        -0.74000        -0.49018
C          7.38741        -1.48808        -0.78899
C          8.71155        -0.74893        -0.57220
C          9.86752        -1.55641        -0.10197
C         10.98486        -0.79544         0.43456
C         -9.89978        -2.91406        -0.64576
C         -8.57668        -3.63107        -0.79044
C         -7.55081        -3.00476         0.14142
C         -6.33029        -3.75968         0.56843
C         -5.03552        -2.98544         0.65634
C         -3.75800        -3.62217         0.79167
C         -2.54500        -2.92415         0.53035
C         -1.32382        -3.66502         0.48346
C         -0.05183        -2.90004         0.52223
C          1.24379        -3.63399         0.57186
C          2.50140        -2.88360         0.30832
C          3.68140        -3.59840         0.20798
C          4.98206        -2.91607         0.18384
C          6.18183        -3.69877        -0.25910
C          7.39650        -2.98993        -0.72780
C          8.74436        -3.71092        -0.81312
C          9.84301        -2.92344        -0.12055
C         -8.60159        -5.13481        -0.77453
C         -7.47924        -5.86341        -0.44055
C         -6.36283        -5.22673         0.25269
C         -5.44048        -6.06717         0.80782
C         -3.60117        -4.98506         1.15819
C         -2.51489        -5.77394         0.82257
C         -1.29952        -5.07127         0.55161
C         -0.04793        -5.81937         0.42944
C          1.22282        -5.10869         0.40213
C          2.40059        -5.78082         0.20576
C          3.67558        -5.05993         0.02816
C          4.96851        -5.81654         0.00902
C          6.26569        -5.08926         0.33056
C          7.49266        -5.85994        -0.12129
C          8.63931        -5.19038        -0.44361
C         -7.41843        -7.30748        -0.59057
C         -6.30677        -8.06177        -0.24463
C         -5.16065        -7.40687         0.36456
C         -3.90407        -7.99859         0.47466
C         -2.60659        -7.30022         0.96262
C         -1.39093        -7.91724         0.26937
C         -0.09482        -7.19554         0.30325
C          1.10758        -7.97180        -0.05213
C          2.41675        -7.23054        -0.06094
C          3.65383        -7.99599         0.28461
C          4.96150        -7.27560         0.33121
C          6.22986        -8.01061         0.10914
C          7.40509        -7.31534        -0.09545
C         -6.21478        -9.49439        -0.40285
C         -5.05370       -10.14059        -0.10499
C         -3.82866        -9.42983         0.21989
C         -2.63353       -10.12737         0.26708
C         -1.35697        -9.41415         0.09422
C         -0.06210       -10.12274         0.15329
C          1.13064        -9.45285         0.10012
C          2.41909       -10.12712         0.07528
C          3.62885        -9.46676         0.11519
C          4.91786       -10.12206         0.06290
C          6.11588        -9.45266         0.05318
O         -1.12233         0.15290         1.56785
O          5.25179        -2.07129         1.35119
O          3.40133         2.97956        -2.38311
H          3.77539         3.68888        -2.95724
O         -6.65712         4.35999         1.93048
O          3.89410        10.12806        -2.01352
H          4.49742         9.54138        -2.53111
O         -4.40053         5.75422         1.95859
O          4.24338        -7.58315         1.57699
O          2.60078         1.69439         1.71828
H          1.79577         2.16929         2.02053
O          1.77049        -7.57653        -1.31885
O         -5.06317         0.94853         2.59488
O         -8.06242        -3.27291        -2.13072
H         -8.72168        -3.57411        -2.79101
O          9.10966        -3.73927        -2.22055
H          8.27131        -3.81225        -2.72944
O         -1.55558        -8.46770        -1.06702
O          6.34626        -4.93467         1.76560
H          6.23147        -5.81466         2.18258
O         -2.44716         7.64194         2.03771
H         -1.58108         7.35724         2.40742
O          6.44779        -3.59694        -1.68659
O          0.31810         6.80929         1.43838
O         -1.57519         2.91138         1.88605
O         -2.68047         1.77369        -1.37900
H         -3.61593         1.74096        -1.67681
O          4.56553         7.71216        -2.15853
O          6.76507         2.83574         1.39824
H          7.38757         2.35981         1.98661
O          0.62883         7.82573        -2.14126
H          1.26346         8.31268        -2.70866
O          2.06111         4.95941         1.45628
H          1.78166         5.75990         1.96248
O          4.36051        -5.47648        -1.25789
O          4.36595         5.30270        -2.23703
O         -7.41201        -3.42709         1.52531
O         -6.25955         7.85400        -2.01095
H         -5.32013         7.74880        -2.30092
O          6.58546         3.29092        -2.22814
H          5.95268         3.82607        -2.75642
O         -2.46011        -7.62129         2.37052
H         -3.17155        -7.14643         2.85333
O         -3.99668         7.02490        -1.23896
O         -0.11419         1.29782        -1.77189
H         -0.23249         0.34453        -1.99865
O          8.18696        -1.01250        -1.91032
O          0.61676        -3.09788         1.80603
O         -0.25309        -1.61857        -1.49892
H          0.52882        -2.07728        -1.87430
O         -4.64469        -5.59010         1.85451
O         -4.97244         1.04396        -0.58691
H         11.88252        -1.35505         0.73802
H         11.87882         1.08169         0.90443
H         10.74194         3.29174         0.58181
H          9.46291         5.50127         0.32996
H          8.07676         7.52272         0.68229
H          6.82749         9.61443         0.84854
H          4.80559        10.91825         0.50562
H          2.36797        11.08500        -0.01286
H         -0.09097        11.12333        -0.19611
H         -2.59830        11.10226        -0.14149
H         -5.11391        10.99389         0.19908
H         -7.19260         9.72189         0.02671
H         -8.44151         7.43048        -0.57588
H         -9.62866         5.32256        -0.23336
H        -10.77957         3.27886        -0.28591
H        -12.04884         1.15758        -0.44515
H        -12.09087        -1.30317        -0.61378
H        -10.84228        -3.46319        -0.79586
H         -9.47189        -5.64749        -1.21416
H         -8.28759        -7.81252        -1.03886
H         -7.09559       -10.05435        -0.74874
H         -4.99013       -11.23322        -0.21842
H         -2.63968       -11.22459         0.17459
H         -0.07802       -11.21823         0.26233
H          2.41231       -11.22651         0.00931
H          4.92614       -11.22068        -0.00351
H          7.04679       -10.03403        -0.02918
H          8.32429        -7.88168        -0.31573
H          9.53114        -5.78621        -0.70179
H         10.71718        -3.47830         0.25492
