         271
 CSIRO Nanostructure Databank - Neutral Graphene Oxide Data Set
C        -10.93100         0.75836        -1.04429
C         -9.79918         1.57632        -0.59887
C         -8.53337         0.85195        -0.45420
C         -7.28439         1.63096        -0.25779
C         -6.07255         0.94089         0.29921
C         -5.17469         1.63945         1.30422
C         -3.83092         0.92994         1.44498
C         -2.54441         1.66252         1.30204
C         -1.33657         0.83860         0.93640
C         -0.01263         1.56119         1.05059
C          1.18575         0.81239         0.53629
C          2.45491         1.56784         0.24684
C          3.68211         0.78926        -0.13912
C          4.99880         1.49901        -0.03815
C          6.24488         0.73708        -0.31365
C          7.42833         1.51638        -0.81197
C          8.65740         0.78100        -1.18629
C          9.93572         1.47370        -0.69073
C         11.17127         0.69063        -1.06109
C         -9.90294         2.91991        -0.37817
C         -8.75841         3.74480         0.19363
C         -7.41980         3.14448        -0.25581
C         -6.28582         3.85310         0.46625
C         -5.09000         3.17200         1.07080
C         -3.78586         3.90692         0.99258
C         -2.53347         3.10477         0.87549
C         -1.20745         3.80952         0.78288
C          0.04759         3.05918         1.15258
C          1.41202         3.80149         1.22125
C          2.61687         2.99360         0.70801
C          3.83113         3.71778         0.23662
C          4.96242         2.96042        -0.39892
C          6.24278         3.70693        -0.61294
C          7.52916         2.94574        -0.24276
C          8.77429         3.70347        -0.82861
C          9.86758         2.91604        -1.14977
C         -8.80115         5.24225        -0.27032
C         -7.46671         6.00682        -0.23829
C         -6.18569         5.26654        -0.00505
C         -4.96280         6.02037         0.37469
C         -3.76826         5.27134         0.86297
C         -2.50883         6.05565         0.70807
C         -1.20397         5.31921         0.71902
C          0.08665         6.07135         0.82987
C          1.35405         5.29183         0.69186
C          2.40473         5.86072        -0.24053
C          3.72017         5.13725        -0.24771
C          5.00850         5.93679        -0.20521
C          6.25496         5.17213        -0.56196
C          7.48707         5.86279        -0.66894
C          8.71044         5.10992        -0.84132
C         -7.38393         7.33092        -0.50780
C         -6.05702         8.09391        -0.52200
C         -5.15699         7.51663         0.60914
C         -3.84746         8.27960         0.83964
C         -2.54291         7.54884         0.95967
C         -1.24481         8.29694         0.71167
C          0.02496         7.53863         0.49237
C          1.05903         8.17219        -0.42443
C          2.27270         7.30218        -0.87717
C          3.62191         8.08759        -0.81629
C          4.92788         7.30324        -0.86324
C          6.24935         8.04983        -0.78959
C          7.48366         7.27743        -0.56704
C         -6.19931         9.58382        -0.32594
C         -5.15850        10.34289         0.03232
C         -3.81793         9.84998         0.54121
C         -2.65866        10.02006        -0.41425
C         -1.29411         9.75791         0.14660
C         -0.07334         9.91737        -0.80082
C          1.25917         9.63515        -0.12665
C          2.43740        10.29147        -0.14752
C          3.69795         9.55058        -0.44474
C          5.02932        10.12313        -0.13662
C          6.18498         9.47497        -0.40082
C        -10.89276        -0.59047        -1.05501
C         -9.72849        -1.36073        -0.49280
C         -8.49056        -0.50839        -0.44764
C         -7.16796        -1.17470        -0.44487
C         -6.05489        -0.54813         0.31797
C         -4.99200        -1.26468         0.77693
C         -3.85096        -0.60018         1.46489
C         -2.56331        -1.37456         1.63619
C         -1.32219        -0.64799         1.16939
C          0.01739        -1.35377         1.31345
C          1.18764        -0.69401         0.61048
C          2.46662        -1.46432         0.33151
C          3.70370        -0.72108        -0.10802
C          5.02631        -1.41713        -0.14976
C          6.17338        -0.74091        -0.43733
C          7.38283        -1.46984        -0.90877
C          8.60664        -0.71922        -1.35709
C          9.92391        -1.46246        -1.58888
C         11.15383        -0.62760        -1.30006
C         -9.53082        -2.75291        -1.05684
C         -8.32262        -3.38050        -1.08255
C         -7.08898        -2.60653        -0.80491
C         -5.81297        -3.33438        -0.49746
C         -4.93236        -2.75108         0.57608
C         -3.76750        -3.57037         1.04922
C         -2.52090        -2.89568         1.57020
C         -1.20637        -3.63532         1.64420
C          0.08707        -2.82435         1.63855
C          1.42899        -3.54775         1.48370
C          2.62846        -2.84708         0.88899
C          3.84191        -3.61395         0.46177
C          4.99147        -2.93247        -0.30097
C          6.36945        -3.54098        -0.05303
C          7.48655        -2.89575        -0.50844
C          8.80863        -3.52204        -0.57140
C          9.91996        -2.83700        -0.94831
C         -8.13092        -4.78845        -1.41505
C         -6.93537        -5.44648        -1.37702
C         -5.67309        -4.75721        -0.93667
C         -4.43246        -5.56925        -0.51041
C         -3.67641        -5.04991         0.72327
C         -2.43777        -5.82880         1.06536
C         -1.10808        -5.05134         1.04637
C          0.14313        -5.82416         1.52051
C          1.43753        -5.05817         1.61247
C          2.75226        -5.74534         1.28135
C          3.88910        -4.94346         0.72258
C          5.18314        -5.69078         0.65608
C          6.44944        -4.97036         0.33032
C          7.63134        -5.74286        -0.15721
C          8.94683        -4.99187        -0.20381
C         -6.92063        -6.93488        -1.71248
C         -5.50532        -7.52790        -1.72939
C         -4.75265        -7.07510        -0.45958
C         -3.46529        -7.87909        -0.21178
C         -2.36309        -7.26564         0.58517
C         -1.06621        -8.00586         0.74413
C          0.16244        -7.32667         1.27249
C          1.50270        -8.10289         1.28006
C          2.72388        -7.22522         0.94419
C          3.78093        -7.75531         0.00022
C          5.10449        -7.08319         0.10984
C          6.38855        -7.88968         0.14579
C          7.57435        -7.08067        -0.33856
C         -5.48646        -9.04411        -1.81659
C         -4.35920        -9.73081        -1.57425
C         -3.09130        -8.99560        -1.19299
C         -1.97998        -9.85810        -0.63931
C         -1.00991        -9.37595         0.16326
C          0.15973       -10.21724         0.64283
C          1.44139        -9.40542         0.48540
C          2.51650        -9.95533        -0.10472
C          3.69971        -9.16721        -0.59641
C          5.03797        -9.87824        -0.58861
C          6.22432        -9.27514        -0.42842
O          5.40772         3.21954        -1.74688
O         -5.65741        -7.29389         0.62968
H         -5.09722        -7.46206         1.42965
O         -6.09469         1.34556        -1.10417
O         -3.28313         7.96123         2.14492
O         -3.53724        -5.72863         2.00824
O          0.16363         8.66151        -1.55931
O          2.80956         5.02284        -1.37021
O          4.27054        -6.88909        -1.09447
O        -10.13790        -1.60700         0.95333
O          5.64219         7.55257        -2.07528
O         -0.74897        -8.00415         2.19221
O          2.80944        -1.37294        -1.08195
O          1.04389         6.03871         1.92216
O         -0.01788         2.20935         2.34946
O          0.71392        -5.48401         2.80421
O          7.68754         2.91850         1.11389
O          6.64335        -8.10893         1.56672
H          6.63789        -7.22560         2.00884
O          1.71068        -8.55135         2.63558
O         -6.80999        -1.57407        -1.82540
O         -1.84602         3.25044        -0.40754
O          7.61717        -1.15893        -2.33576
O         -4.97493        -3.41505         1.87879
O          2.84964         1.39983        -1.15559
O          3.27883        -6.72715         2.20368
O          7.84497         1.45814        -2.20069
O         -2.53771        -8.36504        -2.37871
H         -3.27587        -7.91451        -2.85878
O         -0.84684        -4.86061        -0.37873
H         -1.68944        -4.93764        -0.90098
O          9.89791         1.42702         0.75722
H          9.12799         1.97876         1.09450
O         10.02376        -1.74342        -3.01526
H          9.09906        -1.84030        -3.34542
O          2.43850        -2.92131         2.33496
O         -9.76147         5.89201         0.56898
H         -9.62726         6.86060         0.52015
O         -5.18333        -3.65982        -1.77889
O         -3.63035        10.51529         1.77966
H         -2.66091        10.63877         1.93149
O         -3.10712         1.45122         2.61772
O         -6.11974         3.80521         1.90417
O          3.62685         9.09826        -1.86120
O         -0.24075         8.25225         1.75880
O         -5.17021         5.53954        -1.02280
O          3.74692         3.28760         1.61235
O         -3.36834        -1.01081         2.78494
O          0.19688        -1.80627         2.67558
O         -1.57005        -0.07422        -0.16182
O         -3.39736        -5.36477        -1.51618
H         -3.79093        -5.56726        -2.40137
O         -3.36508        -8.17460         1.19818
O         -7.31280         3.54281        -1.64549
H         -6.60688         2.99591        -2.06051
O         -1.81638         5.76820        -0.54539
O         -2.01922        -3.48630         2.81723
O         -4.86047        -7.00089        -2.92149
H         -5.55807        -7.01592        -3.62022
O          5.85830         1.13737         1.06068
O          0.22405       -11.45173        -0.05295
H          0.34710       -11.26745        -1.00672
O          9.54410        -5.10056         1.10250
H          8.88027        -4.82458         1.76838
O         -7.45860        -7.15210        -3.02596
H         -8.29181        -6.64577        -3.11858
O          0.78442        -0.00242        -0.59512
O         -8.97700        -2.22830         1.59114
H         -9.06874        -1.91033         2.52238
O          6.10241        -5.35056         1.73802
O          3.38461        -9.03342        -2.01855
H          3.87351        -8.23804        -2.33783
O          4.72355        -3.20811        -1.70575
H          3.95184        -2.65190        -1.96983
O          5.13002         6.26921         1.22672
H          5.27071         5.43831         1.73399
H          0.83870        -8.56122         3.09082
O         -5.41969         7.97226        -1.80677
H         -5.34869         7.01094        -2.02504
O         -1.03942        10.64548         1.25946
H         -0.40730        10.17716         1.85554
O         -8.84259         3.69551         1.62021
H         -9.42545         4.43939         1.89479
O          2.04596         7.05366        -2.26455
H          2.19596         7.89876        -2.74312
O          1.69942         3.88044         2.62273
H          1.01275         4.41648         3.07219
O         -5.92483         7.65219         1.82224
H         -5.29581         7.70554         2.57582
O         -5.85266         1.41058         2.55379
H         -5.24676         1.67351         3.28026
H         12.10991        -1.14849        -1.46706
H         12.13905         1.20388        -0.94817
H         10.64217         3.30617        -1.83210
H          9.65617         5.67587        -0.82860
H          8.43838         7.82048        -0.49207
H          7.14097         9.96800        -0.16559
H          5.05978        11.14979         0.25779
H          2.46479        11.39133        -0.19864
H         -0.13301        10.81205        -1.46045
H         -2.83042         9.68101        -1.45039
H         -5.28749        11.43423         0.09874
H         -7.14903        10.05840        -0.61845
H         -8.29864         7.90149        -0.74339
H         -9.17025         5.26526        -1.33722
H        -10.88253         3.40889        -0.50024
H        -11.83333         1.28344        -1.39306
H        -11.76732        -1.16329        -1.39909
H        -10.44343        -3.32542        -1.28868
H         -9.03545        -5.35771        -1.68998
H         -7.54971        -7.48505        -0.95738
H         -6.40982        -9.56383        -2.11442
H         -4.34129       -10.82805        -1.66334
H         -1.90744       -10.89702        -0.99852
H          0.00699       -10.45027         1.72943
H          2.42586       -10.97492        -0.51454
H          5.01489       -10.92498        -0.93119
H          7.14881        -9.86119        -0.55112
H          8.48411        -7.62617        -0.63654
H          9.64938        -5.48898        -0.91878
H         10.87470        -3.38520        -0.99467
