         349
 CSIRO Nanostructure Databank - Neutral Graphene Oxide Data Set
C          1.21835         4.02560        -2.12713
C          0.00044         4.70413        -2.02786
C          1.12990         6.63005        -1.04818
C         -0.04793         5.98341        -1.48161
C          1.09915         7.98721        -0.51192
C         -0.04611         8.62402        -0.09431
C          1.07690        10.76927         0.38375
C         -0.07728        10.00984         0.26177
C          1.11255        12.15590         0.75424
C         -0.11391        12.90156         0.89949
C          1.12467        14.99844         1.20767
C         -0.13397        14.24027         1.12923
C          1.15748        16.47606         1.57276
C         -0.09124        17.18634         1.92131
C          1.17402        19.24261         1.77684
C         -0.06050        18.53474         2.03434
C          1.15130        20.58235         1.29315
C          0.03987        21.42317         1.37235
C          1.18477        23.28351         0.23097
C          0.05950        22.73018         0.85275
C          1.17565        24.63644        -0.30615
C          0.09737        25.53293        -0.09643
C          1.05860        27.18486        -1.58673
C          0.06386        26.80364        -0.66708
C          1.17936        28.51574        -2.20268
C          3.68575         3.84831        -1.64917
C          2.39995         4.63803        -1.68677
C          3.65907         6.53396        -0.64666
C          2.36671         5.94785        -1.17540
C          3.63050         8.03113        -0.48309
C          2.35665         8.81325        -0.66088
C          3.60833        10.90257         0.05525
C          2.38310        10.00862         0.31982
C          3.60086        12.12283         0.94439
C          2.35429        12.80795         1.04794
C          3.50971        14.84509         1.84275
C          2.35809        14.21143         1.39029
C          3.53394        16.23594         2.21878
C          2.42543        17.10206         2.04460
C          3.59558        19.39384         1.92128
C          2.42362        18.56056         1.98238
C          3.62715        20.53352         1.03063
C          2.32871        21.00855         0.44379
C          3.55165        22.99605        -0.41214
C          2.38787        22.48813         0.11623
C          3.50075        24.24428        -1.20475
C          2.24030        25.03521        -1.16312
C          3.91870        27.15444        -2.41704
C          2.04004        26.22280        -1.88660
C          3.69155        28.58848        -1.90625
C          2.36486        29.13451        -2.41256
C          6.12179         4.12416        -2.13384
C          4.93111         4.68566        -1.81745
C          6.13710         6.77158        -1.05078
C          4.84299         6.17487        -1.57260
C          6.10163         7.98694        -0.41617
C          4.83392         8.70291        -0.22869
C          6.01469        10.59811         0.87521
C          4.85458        10.06898         0.15921
C          6.03333        11.99553         1.35377
C          4.80485        12.69247         1.41459
C          6.05217        14.73875         2.35021
C          4.74352        14.03943         2.04066
C          6.04401        16.21114         2.49108
C          4.79807        16.73520         2.71783
C          6.07437        19.36812         2.01418
C          4.83750        18.94108         2.45538
C          6.00713        20.81602         1.56067
C          4.81433        21.12285         0.67843
C          6.09582        23.10782        -0.28386
C          4.85932        22.19836        -0.38795
C          6.08231        24.32887        -0.91161
C          4.84539        24.90500        -1.51495
C          6.17473        26.99808        -1.89700
C          4.94175        26.34848        -1.88312
C          6.17083        29.17438        -2.07477
C          4.84962        29.58516        -1.90928
C          8.58233         4.26394        -2.40476
C          7.37950         4.85008        -2.00944
C          8.63365         6.71013        -1.00425
C          7.39227         6.12452        -1.36802
C          8.65295         7.99913        -0.34338
C          7.36737         8.79265        -0.30310
C          8.60162        10.47930         1.28490
C          7.30472         9.82034         0.81087
C          8.51214        11.98539         1.33442
C          7.30797        12.63230         1.57074
C          8.59952        14.81953         2.17405
C          7.33877        14.01764         2.13110
C          8.60137        16.31484         2.45990
C          7.28542        17.11657         2.71835
C          8.59825        19.16974         1.75744
C          7.25892        18.41700         1.81253
C          8.62123        20.61630         1.38571
C          7.34992        21.38689         1.14947
C          8.57252        23.15206        -0.03923
C          7.36029        22.58356         0.26364
C          8.60930        24.43154        -0.77380
C          7.31680        25.16876        -0.78489
C          8.62066        27.38562        -1.42052
C          7.37771        26.62379        -1.19509
C          8.60765        28.79379        -1.59068
C          7.42677        29.63643        -1.63204
C         11.02940         4.24311        -2.64911
C          9.83877         4.81237        -2.04786
C         11.08486         6.64953        -0.83202
C          9.85771         6.01152        -1.25621
C         11.13003         8.14479        -0.60978
C          9.83441         8.66370        -0.02347
C         11.04326        10.64375         0.82013
C          9.84454         9.95531         0.59718
C         11.06876        12.03774         1.10709
C          9.76737        12.75458         1.16114
C         11.08383        14.93269         1.48459
C          9.78369        14.21984         1.46165
C         11.04324        16.30072         1.60127
C          9.85250        17.04586         2.09097
C         11.06941        19.20329         1.62440
C          9.79362        18.50556         1.79071
C         11.08576        20.60575         1.23799
C          9.89820        21.20011         0.90019
C         11.08026        23.32713         0.19289
C          9.89043        22.40495         0.00127
C         11.12171        24.59552        -0.39110
C          9.89682        25.15532        -1.05540
C         11.11936        27.39239        -1.21195
C          9.90609        26.60317        -1.61247
C         11.10077        28.80551        -1.45826
C          9.87121        29.47106        -1.62584
C         13.56855         4.29352        -2.63173
C         12.26564         4.32224        -2.03727
C         13.55836         6.52637        -0.39169
C         12.24208         5.94523        -0.64548
C         13.56544         7.93553         0.05151
C         12.36703         8.60187         0.12972
C         13.58825        10.64578         0.89646
C         12.31532         9.84934         0.95487
C         13.54491        12.00685         1.15510
C         12.29143        12.73069         1.23582
C         13.52981        14.88419         1.23954
C         12.32364        14.18971         1.30229
C         13.52216        16.33838         1.07735
C         12.23639        17.08426         1.30544
C         13.56573        19.24250         1.84988
C         12.26133        18.52677         1.58989
C         13.57768        20.68413         1.33484
C         12.36144        21.28724         1.05352
C         13.59830        23.50063         0.73949
C         12.29146        22.74231         0.81014
C         13.60701        24.93595         0.24614
C         12.30296        25.39298        -0.38676
C         13.57872        27.42614        -1.04217
C         12.30471        26.73242        -0.85912
C         13.56406        28.82457        -1.46956
C         12.33775        29.50396        -1.54972
C         15.91067         4.74760        -2.93444
C         14.71416         4.95016        -2.17444
C         16.01856         6.79559        -0.94914
C         14.80183         5.95029        -1.06516
C         16.06360         7.92854        -0.06286
C         14.82755         8.57015         0.36898
C         16.09066        10.60786         0.95605
C         14.83538         9.92671         0.76985
C         16.10373        11.99192         1.12975
C         14.82910        12.70520         1.36704
C         16.10138        14.94607         1.06432
C         14.84201        14.21867         1.39661
C         16.00760        16.34199         0.96329
C         14.78570        17.09097         1.22007
C         16.07924        19.17762         1.57669
C         14.79582        18.44811         1.43719
C         16.10849        20.69230         1.50029
C         14.83425        21.40863         1.20006
C         16.10170        23.45746         0.46828
C         14.86401        22.73459         0.77269
C         16.08334        24.69069        -0.14171
C         14.77202        25.23430        -0.70129
C         15.98482        27.32900        -1.53144
C         14.75951        26.72468        -0.99745
C         15.99713        28.76346        -1.88073
C         14.77188        29.46432        -1.82771
C         18.33041         4.98785        -3.31486
C         17.11737         5.36108        -2.63373
C         18.45119         6.88971        -1.19201
C         17.18460         6.38482        -1.60939
C         18.51245         7.83018        -0.11234
C         17.30800         8.48793         0.29918
C         18.61602        10.52510         1.22505
C         17.31155         9.72399         1.19595
C         18.59563        12.03011         1.30393
C         17.31002        12.76935         1.19382
C         18.66827        14.80805         1.21235
C         17.34336        14.17147         1.08885
C         18.95226        16.11187         0.76814
C         17.11738        17.19540         0.63998
C         18.55780        19.14434         0.87166
C         17.29465        18.46197         1.14351
C         18.54448        20.49311         0.62008
C         17.49256        21.36548         1.31975
C         18.66762        23.46879         0.32785
C         17.41208        22.83231         0.84007
C         18.62589        24.78342        -0.34856
C         17.33469        25.55298        -0.21969
C         18.54094        27.40880        -1.47829
C         17.29409        26.64502        -1.26784
C         18.47309        28.72689        -2.00560
C         17.21148        29.38430        -2.17732
C         19.54003         5.45316        -2.89185
C         20.88569         6.64601        -1.18935
C         19.64271         6.34965        -1.76632
C         20.93989         7.38591        -0.00287
C         19.78523         7.96646         0.52108
C         20.68670        10.57163         2.64462
C         19.76999         9.88187         1.89900
C         20.64794        11.99669         2.70382
C         19.68808        12.72056         2.03749
C         20.81522        14.94419         2.37061
C         19.72276        14.16775         1.92499
C         20.87895        16.32111         2.14992
C         19.94445        16.94113         1.30312
C         21.00111        19.01232         0.27271
C         19.90770        18.46278         1.15982
C         20.95357        20.27773        -0.16536
C         19.75061        21.12555         0.02143
C         21.10637        23.36255        -0.26505
C         19.83852        22.61935        -0.06743
C         21.05852        24.67103        -0.59581
C         19.79572        25.39903        -0.72539
C         20.96337        27.50661        -1.48853
C         19.78436        26.78757        -1.22076
C         20.90503        28.81056        -1.99851
C         19.68483        29.41917        -2.25765
O         18.97491        11.30957         0.05099
O         14.41893         5.58095         0.31127
O          5.25907        14.08193         3.41455
O         19.42775        21.83107        -1.25257
O          2.85823        26.52108        -3.01373
O          4.72755        17.93726         3.40453
O          8.11542        21.58597         2.40396
O         12.21754         4.54937        -0.63994
O         18.10150        16.66956        -0.19887
O         18.26096        23.65449         1.73641
O          9.53712        13.77419         0.08198
O         14.90156        13.44431         2.64675
O         19.93143         8.51765         1.80033
O          1.22449        16.04247         0.15704
O         16.59394        26.37247        -2.52075
O          6.42725         9.53879         1.90311
O          6.26768        27.96341        -2.85548
O         12.74046        16.82084        -0.07700
O          8.19194        14.05298         3.34445
O          9.57505        16.66099         3.49504
O          9.28367        24.27776        -2.08353
O         16.11214        20.00046         2.79923
O          7.16442        26.19767         0.22486
O         12.83858        23.45423         1.99807
O          4.17184        24.07744        -2.52082
O         11.24889         8.78602        -1.92983
H         10.40150         8.64450        -2.40315
O          2.34559         9.23675        -2.05514
H          2.97100        10.00239        -2.14108
O         13.60505        19.32517         3.30951
H         14.48813        19.70267         3.55032
O          3.90840         5.94968         0.65858
H          3.80430         4.96984         0.56813
O          7.07125        17.88457         0.46134
H          6.96427        18.62852        -0.16880
O          5.63957        21.56448         2.78119
H          6.45279        21.59485         3.33909
O          7.29482        17.57215         4.06563
H          7.58607        16.83844         4.64579
O          2.59658         9.46812         1.64592
H          1.84197         8.88136         1.86275
O         17.40462        26.25305         1.06090
H         17.62213        25.56942         1.73935
O         10.02645        21.81963        -1.34475
H          9.93074        22.56411        -1.99065
O          3.55584        11.43786        -1.31747
H          2.84720        12.11695        -1.34496
O         18.10166        21.40340         2.64181
H         17.59460        22.02918         3.20162
O          3.47818        28.28333        -0.46856
H          3.26876        29.13140        -0.02104
O         20.20120        18.94030         2.51498
H         19.72033        19.78596         2.66648
O          5.00261        21.52327        -1.66997
H          4.74528        22.17551        -2.36478
O         17.17689         9.25506         2.57315
H         16.38150         8.68388         2.62399
O          2.14609        20.33778        -0.84226
H          1.27235        20.60454        -1.19693
O         13.83271        25.77470         1.40813
H         13.30337        25.38457         2.14116
O         12.24275         9.37329         2.35983
H         13.07717         8.89423         2.55203
O          7.40715         9.61055        -1.53173
H          7.20744         9.02189        -2.29115
O         14.53565        24.53975        -1.95076
H         15.19590        24.89262        -2.59402
O         10.08491        26.47121        -3.06840
H          9.62983        25.64329        -3.34610
O          4.61112         6.81403        -2.86207
H          3.66129         6.71173        -3.08753
O          8.79696        10.07871         2.67477
H          7.89964         9.95081         3.06471
O          3.75845         3.25459        -0.32467
H          4.61503         2.78385        -0.25044
H          1.25262         3.00474        -2.53362
H         -0.92440         4.22057        -2.37163
H         -1.01368         6.50211        -1.40831
H         -0.99754         8.07267        -0.05782
H         -1.06370        10.45586         0.45113
H         -1.06953        12.37181         0.78433
H         -1.09067        14.77948         1.15516
H         -1.03752        16.63519         2.00836
H         -0.98717        19.09851         2.21234
H         -0.86230        21.09454         1.90737
H         -0.84800        23.33784         0.97015
H         -0.71759        25.24570         0.58092
H         -0.74497        27.50078        -0.40766
H          0.24752        29.04069        -2.46961
H          3.66025         3.01942        -2.41180
H          2.36833        30.13424        -2.87300
H          6.17583         3.05363        -2.39417
H          4.67274        30.47095        -1.27841
H          8.55845         3.31532        -2.96134
H          7.53367        30.68399        -1.31642
H         10.94149         3.82956        -3.66531
H          9.87841        30.56001        -1.78243
H         13.66070         3.76564        -3.59486
H         12.32909        30.57183        -1.81547
H         15.88345         4.00189        -3.74354
H         14.75111        30.52801        -2.10874
H         18.26643         4.27215        -4.14719
H         17.21193        30.44687        -2.46349
H         20.46754         5.11946        -3.37950
H         21.80464         6.22417        -1.61960
H         21.89126         7.51568         0.52890
H         21.50000        10.02835         3.14178
H         21.44382        12.51084         3.25923
H         21.61667        14.46561         2.94951
H         21.67759        16.91627         2.61213
H         21.88743        18.38968         0.08043
H         21.76674        20.69101        -0.78032
H         22.06711        22.83328        -0.19440
H         21.99887        25.20911        -0.77620
H         21.94828        27.05560        -1.30987
H         21.84000        29.35252        -2.19816
H         19.64839        30.44286        -2.65662
