         317
 CSIRO Nanostructure Databank - Neutral Graphene Oxide Data Set
C         30.77742        31.54880        -1.04479
C         30.76901        32.76330        -1.33026
C         30.83517        35.83732        -1.92808
C         30.93904        37.07861        -1.91031
C         30.86215        40.19486        -2.03198
C         30.81147        41.39372        -2.34708
C         32.90259        28.96643         0.52800
C         31.78864        29.38148        -0.02428
C         33.04073        31.48013        -0.26415
C         31.73988        30.67141        -0.47431
C         33.12541        32.90681        -0.72037
C         32.05301        33.47824        -1.70232
C         33.11155        35.82681        -0.99850
C         32.03170        35.00067        -1.71333
C         32.92799        37.27627        -0.71781
C         31.85525        37.98131        -1.27133
C         32.85785        40.21478        -0.80127
C         31.83896        39.41209        -1.33050
C         32.85381        41.67605        -0.91807
C         31.51216        42.38797        -1.44585
C         32.83511        44.35110        -1.42428
C         31.95383        43.70864        -1.99734
C         35.60012        27.26860         1.15784
C         35.24476        28.74241         1.58598
C         34.15464        29.37255         0.76397
C         35.41464        31.61208         0.58816
C         34.36058        30.71381        -0.04048
C         35.43062        32.94182         0.30926
C         34.48451        33.63319        -0.69005
C         35.22590        35.87737         0.20791
C         34.24725        35.12820        -0.35233
C         35.14097        37.32384         0.65779
C         33.89716        38.03044         0.10586
C         35.17818        40.29688         0.29093
C         33.90715        39.55383         0.00860
C         34.97519        41.81154         0.47043
C         33.89954        42.42212        -0.44320
C         35.28556        44.47341        -0.89937
C         33.91105        43.99157        -0.45329
C         35.52100        45.95460        -1.08404
C         37.80195        27.37688         2.34898
C         36.68416        26.87159         1.64209
C         37.76006        28.92344         2.32929
C         36.61074        29.47316         1.36829
C         37.89643        31.66704         1.14356
C         36.49989        31.00821         1.50028
C         37.80705        33.18358         1.31936
C         36.52573        33.79584         0.84173
C         37.74323        36.02384         0.37627
C         36.52640        35.19942         0.35533
C         37.64403        37.50015         0.45958
C         36.43536        38.14475         0.47547
C         37.65062        40.34151         0.92902
C         36.34268        39.62420         0.55459
C         37.61684        41.86775         0.76409
C         36.32645        42.60430         0.51867
C         37.78989        44.57825        -0.28751
C         36.38235        44.11220         0.15672
C         37.92387        46.00708        -0.80173
C         36.57953        46.57933        -0.98766
C         40.30319        25.12947         2.22250
C         39.33382        25.54670         2.85042
C         40.30705        27.41806         0.70900
C         38.64303        26.74297         3.24368
C         40.33236        28.79841         1.47876
C         39.07119        29.53978         1.84995
C         40.43118        31.75002         1.41459
C         39.11969        31.06073         1.94298
C         40.38118        33.20849         1.06702
C         39.09179        33.97594         1.20746
C         40.16189        35.98890        -0.08823
C         39.04874        35.39174         0.74189
C         40.18777        37.48638         0.06639
C         38.97916        38.20080         0.66445
C         40.10863        40.39400         0.05428
C         38.80401        39.64823         0.12985
C         40.15241        41.74533         0.15354
C         39.03452        42.52200         0.83936
C         40.30003        44.53074        -0.22992
C         38.99252        44.08646         0.50912
C         40.36844        46.05008        -0.34416
C         39.19106        46.72942        -0.55202
C         40.33820        48.84392        -0.10105
C         39.36020        48.16982        -0.46898
C         42.71274        24.62464         1.44618
C         41.47980        25.35977         1.45027
C         42.89389        27.05993         0.24081
C         41.59970        26.56550         0.74927
C         42.92593        28.37108        -0.21276
C         41.15156        29.64231         0.54605
C         42.56443        31.52403        -0.25953
C         41.46430        30.94385         0.67328
C         42.77099        33.01897         0.15124
C         41.39495        33.75642         0.04381
C         42.62050        35.94742        -0.30792
C         41.49843        35.28198         0.05344
C         42.57928        37.42731        -0.66292
C         41.31431        38.14709        -0.24013
C         42.53011        40.12937         0.59391
C         41.37706        39.64752        -0.33712
C         42.69578        41.62553         0.47265
C         41.47876        42.42443         0.17613
C         42.62980        44.51769         0.80659
C         41.50186        43.88562         0.41234
C         42.74653        45.99966         0.66577
C         41.68201        46.72768        -0.09871
C         42.80742        48.75452         0.75653
C         41.77860        48.55657        -0.26647
C         43.85724        24.92722         1.07491
C         45.48682        26.57341         0.22052
C         44.10014        26.03041         0.05462
C         45.07448        28.73412        -1.32715
C         44.00757        29.34259        -0.48853
C         45.07426        31.53663        -1.10750
C         43.91075        30.72695        -0.41570
C         45.22976        33.03078        -0.59215
C         43.87606        33.72602        -0.63648
C         45.13515        36.03860        -0.97543
C         43.85158        35.21614        -0.73424
C         45.09438        37.32513        -0.17008
C         43.83903        38.14290        -0.18130
C         45.12739        40.22624         0.27084
C         43.83660        39.41123         0.30356
C         45.15099        41.58076         0.97495
C         43.82797        42.28116         1.23528
C         45.04751        44.39757         1.65938
C         43.95359        43.76557         0.82812
C         44.92568        45.88853         2.00783
C         43.64076        46.68455         1.73193
C         43.72884        48.12183         1.28795
C         47.43390        27.14782        -1.29053
C         46.54637        26.48503        -0.70697
C         47.75242        28.60015        -1.03245
C         46.42569        29.39155        -1.53834
C         47.62013        31.59726        -1.57130
C         46.43983        30.80946        -0.92494
C         47.65467        33.05126        -1.09831
C         46.35328        33.82976        -1.36574
C         47.63029        35.86745        -0.54242
C         46.44406        35.26033        -0.82446
C         47.71423        37.18173         0.24581
C         46.36978        37.93656         0.31267
C         47.64098        40.21672         0.33713
C         46.37246        39.41464         0.74825
C         47.69785        41.54114         1.17147
C         46.34405        42.28264         1.18623
C         47.59778        44.32471         2.02896
C         46.33753        43.64348         1.62659
C         47.33681        45.74232         2.29167
C         46.29987        46.39288         2.10880
C         50.16886        28.94520        -1.97481
C         48.91843        29.33321        -1.64832
C         50.15367        31.68650        -1.93123
C         48.97682        30.86767        -1.27875
C         50.21432        33.02107        -1.21884
C         48.96278        33.74610        -0.98396
C         50.23592        35.83170        -0.45120
C         48.95466        35.26431        -1.04725
C         50.26073        37.25543         0.11565
C         48.94283        38.04334        -0.19854
C         50.13292        40.35975        -0.16391
C         49.00500        39.45569         0.47871
C         50.16927        41.73222         0.50823
C         48.84610        42.45033         0.66916
C         50.18445        44.39910         1.33486
C         48.92574        43.70586         1.62795
C         51.31193        29.55560        -2.14515
C         52.58193        31.80843        -1.78918
C         51.52145        30.88743        -1.96401
C         52.61303        33.00712        -1.43395
C         51.47355        33.59893        -0.60476
C         52.54535        35.91856        -0.13840
C         51.39622        35.09598        -0.45938
C         52.65884        37.14225         0.01666
C         51.53517        38.07939        -0.24479
C         52.56932        40.51707         0.07962
C         51.50453        39.56354        -0.19297
C         52.58020        41.72621         0.32725
C         51.40166        42.64466         0.11457
C         51.22983        43.87999         0.92443
O         39.25586        35.09639         2.13982
O         33.29540        38.85651         1.15863
O         48.47779        43.60403         2.95379
O         44.74741        27.82327        -2.08799
O         39.39671        42.37701         2.19689
O         36.84260        33.68928         2.28203
O         40.90013        32.76260         2.36905
O         36.84935        42.44818         1.86762
O         42.88533        46.28699        -0.77137
O         41.66519        28.90421        -0.52531
O         45.50738        37.14072         1.22980
O         39.34212        27.05153         0.08358
O         38.02814        44.83284        -1.69348
O         51.60056        38.81476        -1.46373
O         48.18344        33.25290         0.25204
O         37.27554        35.42157        -0.89451
O         43.52116        34.32760        -1.89486
O         44.67421        44.85260         3.00501
O         32.73039        32.59038         0.64182
O         42.48908        42.10030        -0.88844
O         46.06222        33.92342        -2.76142
H         45.59825        33.08989        -3.03757
O         45.12015        36.44194        -2.37153
H         45.29207        35.61305        -2.89450
O         44.74478        31.59470        -2.50443
H         45.26932        30.90706        -2.98631
O         40.27464        43.94018        -1.54536
H         41.14005        44.10087        -1.97615
O         33.15769        35.51445        -2.46598
O         34.38091        41.94571         1.78095
H         35.12603        41.99842         2.42708
O         38.94972        31.44199         3.31850
H         39.52520        32.22594         3.49011
O         48.98983        35.58706        -2.45919
H         48.99293        36.57334        -2.53478
O         38.91715        44.75358         1.76872
H         39.15155        44.04334         2.44086
O         35.12620        33.55327        -1.96712
H         34.59997        34.09789        -2.60011
O         39.77998        35.77758        -1.47696
H         40.42791        36.25223        -2.04158
O         38.32064        39.54918        -1.23813
H         39.09583        39.50875        -1.83859
O         45.16983        40.55015        -1.14822
H         44.32407        40.99908        -1.37656
O         42.14939        39.80118         1.94327
H         42.48769        40.49864         2.55092
O         43.49106        42.17430         2.63855
H         43.95032        42.88254         3.14392
O         41.65089        39.95656        -1.71990
H         42.07664        39.17168        -2.14619
O         43.26407        33.06609         1.50372
H         42.53455        32.88854         2.15383
O         40.78766        33.44224        -1.21586
H         41.39191        33.73846        -1.93300
O         34.98988        37.22180         2.09641
H         34.41984        37.97850         2.37717
O         35.57620        43.81654        -2.11608
H         36.43634        44.17086        -2.45349
O         34.89592        28.75699         2.94306
H         33.97897        28.43023         3.04589
O         32.45264        33.04796        -2.99714
H         31.91233        33.51216        -3.66970
O         49.23158        30.84745         0.13726
H         49.00701        31.74415         0.51233
O         46.53302        29.42535        -2.96586
H         46.11353        28.59490        -3.29751
O         47.36386        31.65753        -2.97685
H         48.15443        32.06927        -3.41309
O         51.63115        33.09286         0.73164
H         52.37440        33.57437         1.15413
O         42.23879        48.84681        -1.52783
H         41.52452        48.72921        -2.18493
O         38.21994        31.45541        -0.23695
H         37.45228        31.69726        -0.79959
O         37.01002        29.22510         0.00968
H         37.13240        28.25446        -0.10812
O         41.16246        28.62433         2.66847
H         40.60279        28.23785         3.39106
O         45.78708        27.19051         1.34327
H         46.69299        27.61967         1.27039
O         44.46675        43.82525        -0.51970
H         43.78941        43.41393        -1.11124
O         42.85689        46.64193         2.92054
H         43.40983        46.90831         3.68369
O         46.62187        30.65766         0.48283
H         46.56236        31.56443         0.88996
O         39.28779        38.11699         2.06735
H         38.66492        38.71159         2.56108
O         50.46086        37.08304         1.53072
H         49.75966        36.49143         1.88518
O         37.52625        29.28900         3.70023
H         37.09701        30.18747         3.73248
O         42.60529        37.46744        -2.12917
H         43.48751        37.11596        -2.43588
O         48.84304        38.21577        -1.62307
H         48.26761        39.01497        -1.78290
O         34.83721        30.33847        -1.33902
H         35.69210        29.85603        -1.20998
O         37.85764        40.19598         2.34899
H         38.46650        40.95642         2.60858
O         48.45362        42.98919        -0.62823
H         49.27341        43.30791        -1.08009
O         47.89015        28.60233         0.38738
H         48.44316        29.40065         0.63729
O         43.99742        25.49789        -1.23976
H         43.10759        25.11225        -1.37114
O         49.37359        39.30761         1.83821
H         48.78526        38.64623         2.26374
O         39.23965        27.42951         4.25622
H         38.69125        28.24781         4.42465
O         47.95321        36.77827         1.62118
H         47.11067        36.37827         1.94360
O         49.89802        40.64776        -1.56657
H         50.26376        39.88136        -2.07975
O         36.12187        31.28506         2.85351
H         36.16229        32.26665         2.99621
O         36.10167        44.84693         1.34806
H         36.85726        44.70904         1.96641
O         48.00836        41.25843         2.53217
H         47.34342        40.62710         2.88928
O         42.11071        31.46395        -1.61762
H         41.81008        30.54505        -1.79603
O         45.70791        33.05125         0.76476
H         44.93988        32.99848         1.38917
O         33.60761        44.46206         0.83401
H         32.79959        44.01374         1.15716
O         51.26859        42.97731        -1.25026
H         51.09592        42.14092        -1.74988
O         49.89000        31.93786        -3.33831
H         50.10185        31.12537        -3.84583
O         30.71670        42.60441        -0.31080
H         29.87875        43.03253        -0.58051
O         46.28132        39.37313         2.18731
H         45.65423        38.64417         2.41215
O         47.50463        40.48922        -1.06123
H         47.80076        41.41893        -1.24433
