         576
 CSIRO Nanostructure Databank - Neutral Graphene Oxide Data Set
C          6.24596        19.18417         1.79190
C          6.10879        20.62781         1.91702
C          4.92963        21.35038         1.38959
C          6.11250        23.52201         1.23450
C          4.95037        22.67000         1.07108
C          6.12263        24.84127         0.85742
C          8.75061        14.99866         2.38186
C          8.70618        16.38911         2.33268
C          7.50424        17.12958         2.22634
C          8.67685        19.35204         2.12950
C          7.45309        18.55558         2.12685
C          8.66621        20.71490         1.92090
C          7.40286        21.44838         2.06707
C          8.57092        23.60354         1.30796
C          7.34279        22.97333         1.93760
C          8.62342        25.12673         1.44277
C          7.28685        25.70811         0.95703
C          8.43212        27.89256         0.56041
C          7.24462        27.00323         0.52329
C          8.43453        29.17463        -0.13609
C         11.29445        10.62662         2.16848
C         11.27430        12.10257         2.24337
C         10.08476        12.76912         2.32657
C         11.29767        14.95674         2.40977
C         10.01347        14.24532         2.04366
C         11.27759        16.44266         2.35841
C          9.96762        17.16923         2.45725
C         11.33291        19.35914         2.09341
C          9.97747        18.66005         2.33865
C         11.20009        20.76845         1.54649
C          9.84527        21.31281         1.16849
C         11.12286        23.60322         1.21057
C          9.81334        22.83626         1.04177
C         11.08646        25.02784         0.69885
C          9.74888        25.73353         0.57485
C         11.03252        27.96872         0.39861
C          9.78003        27.24161         0.78472
C         10.93891        29.30321        -0.21623
C          9.61212        29.85890        -0.49650
C         10.64411        31.82464        -1.65205
C          9.50622        31.00184        -1.31495
C         11.39801        32.45553        -0.44977
C         13.62375         6.40392         1.73941
C         13.58626         7.86028         1.71418
C         12.37025         8.47168         1.51717
C         14.07540        10.80552         2.63891
C         12.11522         9.91668         1.33177
C         13.83456        12.13825         2.23399
C         12.56281        12.84615         2.24422
C         13.84800        15.05438         2.25698
C         12.56628        14.22686         2.16859
C         13.70012        16.38575         1.48933
C         12.38928        17.09215         1.58443
C         13.54124        19.22452         0.82693
C         12.21341        18.53333         1.12169
C         13.53480        20.59695         0.77508
C         12.33883        21.39903         1.06694
C         13.47138        23.50572         0.34920
C         12.32796        22.81396         0.76004
C         13.47025        24.91205         0.10346
C         12.24310        25.65547         0.29148
C         13.38943        27.80096        -0.55830
C         12.28421        27.14283         0.14509
C         13.34404        29.15838        -0.80719
C         12.10468        29.91544        -0.66692
C         13.23060        31.85815        -1.97868
C         12.04205        31.29419        -1.20127
C         13.30504        33.28812        -1.54963
C         12.21941        33.66050        -0.74778
C         13.22011        35.86057        -0.54017
C         12.14884        34.97410        -0.26352
C         13.18473        37.22702        -0.04772
C         16.01692         6.30742         1.18327
C         14.75093         5.68153         1.48102
C         16.14196         7.75789         1.45428
C         14.91185         8.54100         1.85956
C         16.09748        10.67364         1.25480
C         15.01323        10.03186         1.88419
C         16.19162        12.06551         1.31789
C         14.96282        12.81141         1.58435
C         16.29093        15.06362         1.46811
C         15.00305        14.32127         1.60388
C         16.20569        16.49912         1.00188
C         14.88415        17.13878         0.99662
C         15.90893        19.08094        -0.06146
C         14.76269        18.45988         0.53430
C         15.75196        20.46487        -0.53488
C         14.59627        21.26868         0.00211
C         15.97288        23.46075        -0.22253
C         14.72949        22.74387         0.18355
C         15.84416        24.89462        -0.55754
C         14.64204        25.56500        -0.41864
C         15.81559        27.64723        -1.27844
C         14.50512        26.92312        -1.08034
C         15.74208        29.05019        -1.70329
C         14.65277        29.88807        -1.06854
C         15.72476        31.97024        -1.95810
C         14.55815        31.21760        -1.75091
C         15.71214        33.38605        -1.96686
C         14.47982        34.06116        -1.65112
C         15.60300        36.23686        -1.20850
C         14.39188        35.40309        -1.19810
C         15.57265        37.53791        -0.49188
C         14.29022        38.02356        -0.04272
C         18.36451         6.28157         0.44983
C         17.12579         5.61191         0.77009
C         18.37041         7.73820         0.34159
C         17.29710         8.46133         0.85087
C         18.30783        10.63133        -0.01816
C         17.03188         9.87470         0.38342
C         18.60871        11.97763         0.59222
C         17.46210        12.76500         1.15802
C         18.64077        14.94883         0.45833
C         17.54413        14.29724         1.18251
C         18.47420        16.24093        -0.06935
C         17.30865        17.03324         0.18917
C         18.25277        19.03503        -0.90715
C         17.16027        18.38792        -0.28273
C         18.16970        20.41398        -1.40859
C         16.93548        21.20719        -1.09774
C         18.36470        23.33330        -1.15734
C         17.05047        22.69285        -0.93950
C         18.38236        24.80951        -1.10080
C         17.09474        25.58614        -0.92642
C         18.19182        27.63413        -1.93572
C         16.99530        26.97574        -1.42803
C         18.27956        29.01417        -2.10002
C         17.01270        29.76674        -2.12794
C         18.24644        31.97443        -1.70602
C         17.04238        31.28449        -2.31428
C         18.21561        33.32085        -1.55756
C         17.02642        34.13774        -2.08403
C         18.04597        36.11803        -0.60642
C         16.92796        35.57368        -1.49119
C         18.02897        37.63442        -0.47532
C         16.73019        38.26812        -0.37331
C         20.74126         6.22453        -0.16326
C         19.51282         5.56686         0.17352
C         20.72720         7.65752        -0.40779
C         19.53275         8.37917        -0.24788
C         20.78314        10.57816        -0.75776
C         19.50004         9.84881        -0.46185
C         20.95689        12.00340        -0.44256
C         19.90275        12.69643         0.33972
C         21.12794        14.89594        -0.21256
C         19.98782        14.23855         0.60061
C         20.77794        15.94899        -1.25531
C         19.51911        16.79909        -0.98213
C         20.69386        19.01152        -1.67428
C         19.44239        18.27249        -1.34494
C         20.73664        20.38673        -1.74153
C         19.45644        21.15590        -1.74533
C         20.70492        23.34669        -1.88768
C         19.47371        22.64076        -1.60452
C         20.73256        24.74595        -2.00759
C         19.47160        25.46258        -1.85442
C         21.07573        27.78785        -2.21238
C         19.27198        26.74341        -2.30168
C         20.84196        29.08375        -1.76285
C         19.58917        29.83873        -2.21885
C         20.76503        31.88859        -1.21702
C         19.44732        31.11746        -1.34036
C         20.72857        33.33172        -0.97763
C         19.46512        34.07627        -1.26790
C         20.64650        36.25681        -0.45706
C         19.40218        35.54625        -0.98999
C         20.34275        37.51817         0.39954
C         19.16937        38.29920        -0.13365
C         23.17159         6.13763        -0.55143
C         21.92437         5.50246        -0.26931
C         23.18155         7.57230        -0.74476
C         21.98346         8.29140        -0.73543
C         23.32047        10.43736        -1.02261
C         22.02596         9.74059        -1.01231
C         23.34957        11.84628        -0.99950
C         22.19820        12.60323        -0.64026
C         23.38739        14.69370        -1.46467
C         22.30864        14.08491        -0.63568
C         23.34431        16.09542        -1.78654
C         21.98946        16.74442        -1.79088
C         23.17664        18.98115        -2.34398
C         21.90050        18.22804        -2.04779
C         23.19809        20.44963        -2.12618
C         21.98316        21.10570        -1.97883
C         23.25873        23.32791        -2.06903
C         21.92879        22.57125        -2.15159
C         23.21454        24.74888        -1.69512
C         21.98371        25.48023        -1.88665
C         23.01982        27.43821        -0.70456
C         22.02707        26.88270        -1.69106
C         23.05508        28.95059        -0.71818
C         21.93303        29.72115        -1.06899
C         23.10577        31.84286        -0.27899
C         21.91341        31.17375        -0.94941
C         23.18753        33.39540        -0.51038
C         21.79871        33.99864        -0.42997
C         22.71624        36.04438         0.94607
C         21.51587        35.28077         0.35095
C         22.80077        37.53647         0.76628
C         21.65506        38.25004         0.51883
C         25.61233         6.04085        -0.90837
C         24.35947         5.40956        -0.63555
C         25.62830         7.45411        -1.13086
C         24.44865         8.22927        -1.01459
C         25.72483        10.32107        -1.57153
C         24.48537         9.64646        -1.14909
C         25.78156        11.80714        -1.62159
C         24.66264        12.58515        -0.97750
C         25.81341        14.62807        -1.86162
C         24.60636        13.99408        -1.53012
C         25.82212        16.04175        -2.39174
C         24.50532        16.77756        -2.13893
C         25.78773        18.99449        -2.57051
C         24.46934        18.22097        -2.48884
C         25.71598        20.44888        -2.07073
C         24.48021        21.14554        -2.06072
C         25.68831        23.25142        -1.60749
C         24.48567        22.55252        -1.84364
C         25.65483        24.68734        -1.34814
C         24.40107        25.38640        -1.31165
C         25.51070        27.42861        -0.49594
C         24.36904        26.77466        -0.86309
C         25.48934        28.84285        -0.16470
C         24.29759        29.59624        -0.38868
C         25.67402        31.51626        -0.42220
C         24.37496        31.00477        -0.45459
C         25.44613        33.49854         0.45028
C         24.17233        33.99977         0.52019
C         25.22969        36.11929         1.41747
C         23.98076        35.30226         1.23606
C         25.28467        37.50261         1.01642
C         24.09300        38.17898         0.75465
C         28.09909         5.93016        -0.83927
C         26.81836         5.30668        -0.81840
C         28.19175         7.30770        -1.39315
C         26.91053         8.08108        -1.52561
C         28.29448        10.29814        -1.45889
C         26.99752         9.56856        -1.40888
C         28.28776        11.79452        -1.56721
C         27.08224        12.50902        -1.61105
C         28.28180        14.65420        -1.56880
C         27.06398        13.92817        -1.70291
C         28.25974        16.12110        -1.69398
C         27.09856        16.80143        -2.01549
C         28.15508        19.14505        -2.37700
C         26.98151        18.31672        -1.88250
C         28.22754        20.48564        -2.12094
C         26.93923        21.16129        -1.87770
C         28.17439        23.38641        -1.84879
C         26.92014        22.55416        -1.66086
C         28.09719        24.69098        -1.11136
C         26.84750        25.35825        -1.03364
C         27.95262        27.27583         0.17062
C         26.86849        26.84584        -0.79741
C         27.75144        28.60103         0.91492
C         26.68823        29.46380         0.25806
C         28.02605        31.70501         0.44194
C         26.79185        30.86228         0.11465
C         27.78228        33.01908         1.20865
C         26.51249        33.51171         1.40980
C         27.71542        36.04448         1.70081
C         26.38479        35.55510         1.91203
C         27.76834        37.42722         1.24738
C         26.59169        38.11317         0.96082
C         30.39405         6.10969         0.10844
C         29.21649         5.32126        -0.28780
C         30.51894         7.53675        -0.37537
C         29.57328         7.97174        -1.48129
C         30.83270        10.28330        -1.40106
C         29.57074         9.52032        -1.66151
C         30.76877        11.78867        -1.32443
C         29.47739        12.51334        -1.34974
C         30.63943        14.63418        -0.68648
C         29.46356        13.92657        -1.27133
C         30.68022        16.12675        -0.82306
C         29.59456        16.75757        -1.62757
C         31.34418        18.26835        -2.57079
C         29.98862        17.75777        -2.47023
C         30.69578        20.59165        -1.47872
C         29.55954        21.25163        -2.22835
C         30.62776        23.37434        -1.33056
C         29.49302        22.67864        -1.67364
C         30.55068        24.69368        -0.69877
C         29.24271        25.28520        -0.57379
C         30.24755        26.81360         1.01934
C         29.08880        26.48429         0.23294
C         30.11345        28.84434         1.74603
C         29.02372        29.40996         1.14809
C         30.14086        31.60408         1.89643
C         28.95515        30.87736         1.29403
C         30.13082        33.08834         1.89040
C         28.91986        33.77707         1.76128
C         30.12974        36.06136         2.15497
C         28.87008        35.24200         1.84042
C         30.22055        37.33283         1.32927
C         29.07102        38.00031         0.99183
C         32.79118         6.14265         0.67818
C         31.62855         5.45445         0.56546
C         32.90551         7.54252         0.29927
C         31.84714         8.17821        -0.32618
C         33.34849        10.22294        -0.79209
C         31.92254         9.67296        -0.50419
C         33.25381        11.73865        -0.66931
C         31.99340        12.49591        -0.88891
C         33.18969        14.64989        -0.43206
C         31.89166        13.86701        -0.25021
C         33.21965        16.02638        -0.50432
C         31.97796        16.91077        -0.57294
C         33.49358        18.81491        -1.41126
C         32.26094        17.97426        -1.60808
C         33.19478        20.22240        -0.82546
C         31.88137        20.70106        -1.11312
C         33.19698        23.33232        -0.84688
C         32.01451        22.92899        -1.72759
C         33.05307        24.77280        -0.37802
C         31.69424        25.35558        -0.21287
C         32.68851        27.29234         1.19633
C         31.55054        26.51210         0.65340
C         32.62255        28.68358         1.63635
C         31.41756        29.46479         1.80677
C         32.64958        31.59026         1.90808
C         31.41974        30.86318         1.91874
C         32.66095        33.00800         1.97506
C         31.40652        33.75430         2.17913
C         32.71767        35.89587         1.80778
C         31.43625        35.26505         2.20146
C         32.68908        37.26009         1.33682
C         31.51722        37.91165         1.07895
C         34.11034         8.27400         0.59930
C         35.49729        10.23201         0.77830
C         34.35879         9.57796         0.19573
C         36.00898        11.46736         0.36252
C         34.37670        12.50670        -0.65821
C         35.62324        14.53094         0.08365
C         34.42238        13.91360        -0.34694
C         35.63876        15.97015         0.06394
C         34.48292        16.70267        -0.41680
C         35.60307        18.86959        -0.11169
C         34.53303        18.09373        -0.61061
C         35.46148        20.24611         0.11221
C         34.24740        20.94633        -0.26261
C         35.22738        23.12058         0.75992
C         34.26923        22.45582        -0.19056
C         35.25580        24.49449         0.93259
C         34.15717        25.37104         0.44410
C         35.12874        27.33850         1.57498
C         33.94582        26.67133         1.14196
C         35.09579        28.73200         1.81693
C         33.84905        29.41980         1.78972
C         35.10266        31.57151         2.01053
C         33.86193        30.84910         1.90730
C         35.09354        32.98988         1.99907
C         33.89105        33.71813         1.97168
C         33.87973        35.15730         1.82076
C         36.78479        12.43358         1.02988
C         37.84203        14.60866         1.15398
C         36.75973        13.82612         0.68416
C         37.91141        16.00282         0.98970
C         36.78511        16.68215         0.43998
C         38.05231        18.89664         0.67871
C         36.84433        18.13967         0.23120
C         37.91794        20.42063         0.81207
C         36.43554        20.80243         1.14565
C         37.49218        23.02863         1.97045
C         36.27975        22.30491         1.42023
C         37.52731        24.49106         1.94471
C         36.36935        25.18694         1.57248
C         37.53135        27.30256         2.14036
C         36.34885        26.60835         1.72542
C         37.51724        28.71196         2.23928
C         36.32507        29.44394         2.06327
C         36.31337        30.85424         2.12486
C         39.03393        16.75659         1.47700
C         40.13941        18.86778         2.05685
C         39.09244        18.13997         1.42298
C         40.07435        20.24847         2.22528
C         38.90866        20.99418         1.81030
C         39.86564        23.02958         2.79955
C         38.76954        22.30952         2.18875
C         39.81976        24.41189         2.89686
C         38.69239        25.17029         2.42817
C         38.69812        26.56641         2.47165
C         41.11898        20.94440         2.93325
C         41.03461        22.28189         3.18602
O         36.38258        22.55726         2.86400
O         16.35417        36.44929        -2.48857
O         31.67542        12.43975        -2.32257
O          9.11687        27.85221         1.89439
O         29.95401         7.29676         0.94425
O         12.70289        16.25864         0.40705
O         14.60280        13.66185         0.38345
O         23.66952        18.58246        -3.67514
O         27.52172         7.45747        -2.70079
O         35.59873        11.88640        -0.91504
O         12.04645        27.82914         1.44052
O         20.20695        27.28769        -3.20382
O         22.62683        23.02562        -3.35691
O         34.44686        23.06562        -1.52353
O         16.55223        22.09054        -2.18797
O         29.00572        31.15987         2.73193
O         22.32186        14.94844         0.62090
O         19.00192        17.21547        -2.28802
O         21.18627        10.20733        -2.12074
O          9.95550        18.02275         3.66708
O         37.95828        18.48615        -0.72218
O         27.69443         9.91886        -0.15374
O         18.58758        20.61632        -2.79717
O         18.52145        10.43506        -1.44330
O         19.60727        35.11613        -2.35232
O         19.69936        11.89889         1.56836
O         29.09656        18.52815        -3.20621
O         32.22267        22.61604        -2.90036
O         15.76708        23.09216         1.18330
O          6.61804        21.06946         3.24207
O         34.05936        25.61809        -1.01552
O         22.98682        35.51521         2.29720
O         16.55066        16.10612         2.42689
O         15.80555         7.99109         2.89624
O         30.47761         9.86192        -2.75037
O         16.01929        29.22899        -3.12041
O         21.63126        17.25649        -3.11449
O         31.48695        34.51972         3.46141
O         26.30059        34.30495         2.54203
O          8.90925        23.19553        -0.06354
O         18.08043        25.43631         0.19288
O         30.17867        15.52303         0.41734
O         11.49787        15.75667         3.64504
O         30.03138        27.51898         2.19949
O         14.56966        20.74564        -1.36666
O         25.83664        32.86529        -0.75334
O         17.87521        13.49861         2.35697
O         25.52469        11.05806        -2.84375
O         11.48779        18.47951        -0.12070
H         11.91258        17.78974        -0.67928
O         25.05426        12.70616         0.42700
H         24.41444        13.30595         0.86745
O         31.59561        19.13132        -3.59541
H         30.73055        19.43820        -3.96532
O         30.17897         7.40310        -2.66057
H         29.56522         7.55863        -3.41180
O         16.22782         9.67161        -0.82535
H         16.86479         9.71998        -1.58376
O         28.17097        23.72789        -3.28530
H         28.43118        22.91611        -3.77988
O         11.23383        23.69878         2.67413
H         11.98734        24.28968         2.88735
O         27.23653        27.46084        -2.09283
H         27.92305        26.89054        -2.50251
O         12.73458        10.52791         0.28072
H         13.32280         9.90408        -0.18916
O         10.49910        32.60415        -2.79227
H         11.36563        32.63004        -3.26890
O         31.77806        13.62032         1.17226
H         31.26979        14.37158         1.55564
O         17.27407        34.29295        -3.50281
H         16.88125        35.15498        -3.77175
O         12.04414        19.43638         3.34350
H         11.50639        18.94885         4.01560
O          7.28841        23.48179         3.29940
H          6.78632        22.80990         3.82314
O         26.81838        18.56549        -0.45656
H         27.54275        18.10953         0.02247
O         27.21846        28.24469         2.22580
H         27.95877        27.84986         2.73914
O         29.93287        21.33611        -3.61874
H         30.80302        21.82496        -3.64829
O          9.66564        20.78001        -0.18587
H          9.17684        21.45797        -0.70734
O         10.04475        14.33247         0.56032
H          9.43592        13.65036         0.20572
O         26.14487        19.09049        -3.96349
H         25.30194        19.16060        -4.47104
O         23.60635        33.68876        -1.85523
H         24.55291        33.42923        -1.94268
O         19.88828        37.15044         1.73910
H         20.62638        36.70513         2.21199
O          8.91082        25.48787         2.79211
H          8.29906        24.98747         3.38103
O         17.17074        31.49299        -3.74517
H         16.60654        30.82009        -4.18627
O         22.81255        31.72772         1.15012
H         22.63480        30.78346         1.34857
O         14.08592        26.58880        -2.45613
H         14.26309        27.36800        -3.02730
O         34.13028        19.09702        -2.67964
H         33.45129        19.48903        -3.27564
O         17.76304        35.58628         0.72060
H         18.43225        35.98549         1.33685
O         15.18053        30.15817         0.28031
H         14.45437        30.53141         0.82380
O         14.16995        15.30110         3.63109
H         13.33477        15.57294         4.08433
O         33.75397         9.85966        -2.11838
H         33.18698        10.34383        -2.75657
O         25.89641        15.93883        -3.86476
H         25.02548        15.62466        -4.18985
O         31.84016        17.56858         0.71391
H         31.35172        16.94595         1.29804
O         20.72240        34.78035         1.46276
H         21.36967        34.47541         2.14423
O         36.10208        20.08963         2.36365
H         36.14635        20.75074         3.09796
O         12.93622        31.77278        -3.42459
H         13.72479        32.11533        -3.89837
O         19.76495        30.23596        -3.58534
H         19.86125        29.42249        -4.12532
O         28.73075        31.98212        -0.79317
H         28.09520        32.41037        -1.40584
O         38.25364        21.02731        -0.45004
H         38.17520        20.31963        -1.13563
O         20.38547        15.07955        -2.35503
H         20.11009        15.67823        -3.08998
O         31.57461        10.20326         0.81605
H         30.92703         9.59850         1.24003
O         21.41946        36.71116        -1.57808
H         21.17128        36.13803        -2.34476
O         13.41349        10.23835         3.67433
H         13.75539         9.33396         3.82883
O          9.39969        25.63961        -0.83760
H          9.26912        24.68179        -1.04500
O         20.30539        14.41505         1.98996
H         21.28389        14.36599         2.08162
O         22.50974        27.03336         0.62527
H         23.17104        27.32213         1.29007
O         29.91234        36.54383         3.51618
H         30.19591        35.81503         4.11639
O         19.17805        30.59256        -0.00594
H         19.09955        31.34661         0.61575
H          5.37238        18.58226         1.50165
H          4.02046        20.76149         1.19556
H          4.04792        23.13024         0.63935
H          5.20796        25.27805         0.42286
H          7.80079        14.44158         2.32830
H          6.55449        16.57777         2.15481
H          6.30470        27.41922         0.12515
H          7.47331        29.57468        -0.49462
H         10.72762        10.06902         2.92808
H          9.14371        12.19667         2.30375
H          8.53286        31.25649        -1.75858
H         10.96351        32.31378         0.55274
H         12.66703         5.87801         1.87873
H         11.48359         7.81383         1.53232
H         11.30751        35.31276         0.35740
H         12.23592        37.60159         0.36333
H         14.69429         4.58346         1.44395
H         14.23532        39.04077         0.37251
H         17.08005         4.51771         0.65975
H         16.68932        39.29726         0.01602
H         19.50623         4.46945         0.25352
H         19.13507        39.38500         0.05011
H         21.90838         4.41442        -0.10591
H         21.70419        39.33774         0.35727
H         24.33727         4.32170        -0.47136
H         24.12277        39.25401         0.52178
H         26.76131         4.24937        -0.51689
H         26.65951        39.15533         0.61293
H         29.14958         4.27744         0.05626
H         29.13049        38.97515         0.48338
H         33.69614         5.63394         1.04205
H         31.59467         4.37668         0.78441
H         33.64861        37.74710         1.10903
H         31.54620        38.92334         0.64650
H         34.86445         7.76277         1.21854
H         35.91854         9.77129         1.68652
H         36.05237        33.52838         2.02292
H         34.83325        35.65607         1.58837
H         37.43775        12.13074         1.86344
H         38.68566        14.09428         1.63863
H         38.44637        29.24420         2.49029
H         37.25880        31.39956         2.25924
H         39.84203        16.21048         1.98750
H         40.98495        18.31140         2.48886
H         40.68388        24.95661         3.30493
H         39.59044        27.10076         2.82854
H         42.00607        20.37363         3.24453
H         41.85896        22.81126         3.68527
