         349
 CSIRO Nanostructure Databank - Neutral Graphene Oxide Data Set
C          1.55250         2.24644        -2.84263
C          1.36771         3.46743        -2.17662
C          2.71901         1.47231        -2.78857
C          2.33332         4.16968        -1.40725
C          1.49673         6.26438         1.40972
C          1.71173         7.49225         2.11353
C          2.34335         5.85844         0.40554
C          2.68913         8.34701         1.72234
C          1.44000        10.45121         1.73409
C          1.46707        11.63780         1.08137
C          2.67030         9.76494         2.27553
C          2.66507        12.44681         1.05919
C          1.60839        14.34835        -0.17105
C          1.64736        15.57113        -0.75203
C          2.76404        13.73552         0.46150
C          2.90854        16.31371        -0.89948
C          2.87173        17.76625        -1.15828
C          3.94251         2.06850        -2.42244
C          3.71392         4.06248        -1.59703
C          5.01781         1.51819        -1.71477
C          4.83191         4.51044        -0.81990
C          3.65595         6.50313         0.21679
C          3.68206         7.99953         0.63547
C          4.79405         5.86680        -0.22747
C          5.05793         8.51623         1.02571
C          3.93551        10.52720         2.01915
C          3.82825        11.90223         1.70404
C          5.21447         9.71063         2.04606
C          4.86309        12.83253         2.02169
C          3.98202        14.47845         0.53326
C          4.13555        15.74521        -0.20118
C          5.04177        14.06001         1.37818
C          5.23646        16.66701         0.18884
C          3.95666        18.53929        -0.93444
C          5.17264        18.04122        -0.31224
C          6.04660         2.28777        -1.12401
C          5.99419         3.70331        -0.83001
C          7.19147         1.52238        -0.66691
C          7.21440         4.26235        -0.20232
C          6.12538         6.61724        -0.25867
C          6.15483         7.87025         0.59037
C          7.27796         5.70175         0.15662
C          7.52181         8.36808         1.02581
C          6.48563        10.51199         1.73885
C          6.69861        11.85034         2.14233
C          7.51267         9.87317         1.03132
C          7.76241        12.67430         1.71604
C          6.27850        14.87796         1.57563
C          6.26727        16.25212         0.99415
C          7.67974        14.19119         1.82880
C          7.41264        17.19738         1.35352
C          6.24184        18.88805        -0.14978
C          7.44696        18.47147         0.51954
C          8.39143         2.09700        -0.31670
C          8.49256         3.51856        -0.32200
C          9.61724         1.31995         0.07646
C          9.71813         4.15242        -0.51791
C          8.70451         6.27891         0.30590
C          8.66359         7.77949         0.21945
C          9.62474         5.64007        -0.76609
C          9.69062         8.49063        -0.30275
C          8.61499        10.61235         0.58138
C          8.76708        11.95273         1.00036
C          9.65525         9.97671        -0.26667
C         10.10289        12.46681         0.90390
C          8.84004        15.08908         1.48354
C          8.74750        16.48226         1.23738
C         10.14866        14.58694         1.38043
C          9.90793        17.23568         0.96726
C          8.59000        19.20671         0.40923
C          9.85562        18.74023         1.09802
C         10.93909         2.04971        -0.16481
C         10.95486         3.43072        -0.59837
C         12.04207         1.30162         0.24642
C         12.16444         4.18864        -0.88488
C         10.94839         6.34605        -0.86357
C         10.86335         7.82449        -0.96003
C         12.12515         5.65825        -0.96853
C         12.13144         8.60607        -1.18976
C         10.89673        10.75101        -0.61602
C         11.04962        12.08121         0.01292
C         12.21002         9.98467        -0.58193
C         12.19291        12.95077        -0.36042
C         11.16976        15.19546         0.66076
C         11.10782        16.60600         0.51811
C         12.23477        14.42006        -0.03070
C         12.23258        17.33326         0.04499
C         11.12635        19.42645         0.67275
C         12.28219        18.75447         0.24789
C         13.38668         1.54674        -0.15520
C         13.40248         3.58855        -1.12412
C         14.55685         1.17694         0.49140
C         14.66741         4.28493        -1.04190
C         13.40831         6.38228        -1.22111
C         13.44989         7.88963        -1.29861
C         14.67948         5.69173        -0.94915
C         14.71226         8.59093        -0.90912
C         13.44890        10.76908        -0.99229
C         13.45806        12.25055        -0.78776
C         14.72029        10.01859        -0.79212
C         14.72579        12.88177        -0.23714
C         13.51344        15.17894        -0.20622
C         13.35107        16.62642        -0.70065
C         14.76639        14.40564        -0.42640
C         14.68801        17.31863        -0.54986
C         13.54657        19.41158         0.10455
C         14.74308        18.68385        -0.17078
C         15.84668         1.60669         0.03101
C         15.89839         3.59330        -0.96142
C         17.04795         1.53301         0.69856
C         17.11883         4.24255        -0.65865
C         15.90443         6.39654        -0.83913
C         15.90066         7.85092        -0.75941
C         17.11470         5.66378        -0.70410
C         17.14689         8.52634        -0.44341
C         15.91063        10.73768        -0.58456
C         15.97960        12.15310        -0.63183
C         17.15498        10.01489        -0.15566
C         17.20679        12.86949        -0.79504
C         15.89672        15.06126        -1.16744
C         15.89053        16.62342        -1.00704
C         17.15256        14.22353        -1.49840
C         17.21715        17.22618        -0.84077
C         16.02505        19.30054        -0.13401
C         17.22984        18.59164        -0.38918
C         18.25829         2.20713         0.26430
C         18.31900         3.46650        -0.31003
C         19.51130         1.38872         0.52397
C         19.66186         4.17740        -0.50067
C         18.42842         6.40228        -0.78842
C         18.32914         7.84378        -0.36878
C         19.53827         5.65806        -0.03674
C         19.60354         8.58653        -0.04392
C         18.37999        10.68081        -0.77464
C         18.41230        12.15730        -0.87763
C         19.64339         9.90630        -0.80499
C         19.67800        12.84606        -0.91798
C         18.49514        15.06362        -1.54852
C         18.42720        16.49381        -0.99192
C         19.70196        14.28443        -1.00683
C         19.65037        17.15400        -0.79130
C         18.47221        19.24093        -0.23405
C         19.67970        18.54771        -0.44558
C         20.80360         2.15985         0.55667
C         20.83459         3.52953         0.21351
C         21.96602         1.48839         0.93211
C         22.03534         4.25542         0.35499
C         20.85924         6.40377        -0.11123
C         20.87406         7.78830        -0.20578
C         22.07178         5.69420         0.13681
C         22.10431         8.52750        -0.15267
C         20.96640        10.62687        -1.03770
C         20.88673        12.12382        -0.76633
C         22.13681         9.92996        -0.38052
C         22.11668        12.81518        -0.61702
C         20.91097        14.96143        -0.86068
C         20.95810        16.45420        -1.12584
C         22.12789        14.24783        -0.64470
C         22.15159        17.13636        -0.51426
C         20.91475        19.23085        -0.30447
C         22.14408        18.52315        -0.29771
C         23.21924         2.15148         0.94391
C         23.23831         3.56246         0.69870
C         24.43680         1.47595         1.21005
C         24.47051         4.25591         0.78636
C         23.25866         6.42694         0.35009
C         23.31034         7.83377         0.17188
C         24.45749         5.71901         0.81587
C         24.54645         8.56968         0.29996
C         23.33539        10.65101        -0.20929
C         23.33196        12.08846        -0.41064
C         24.53069         9.97594         0.16626
C         24.57286        12.78031        -0.40237
C         23.37822        14.93385        -0.49741
C         23.38657        16.39399        -0.10053
C         24.56376        14.21953        -0.46283
C         24.66802        17.15021        -0.43978
C         23.37674        19.20139        -0.03110
C         24.63249        18.59512        -0.22538
C         25.67172         2.14086         1.15130
C         25.69173         3.56951         0.92535
C         26.90161         1.44203         1.35714
C         26.93288         4.26393         0.73268
C         25.79186         6.46084         0.81710
C         25.79317         7.88850         0.48098
C         27.00709         5.65780         0.61045
C         27.04255         8.56336         0.39739
C         25.78098        10.75302         0.50061
C         25.78728        12.08424        -0.19148
C         27.06629         9.98174         0.28618
C         27.05743        12.70991        -0.53232
C         25.82882        14.94458        -0.09274
C         25.83493        16.39460        -0.52437
C         27.08513        14.23420        -0.56862
C         27.10955        16.95089        -0.80215
C         25.78964        19.39423         0.05235
C         27.08593        19.03905        -0.35074
C         28.13255         2.05368         1.11626
C         28.14019         3.42733         0.56553
C         29.37446         1.39405         1.28536
C         29.46556         4.11196         0.32537
C         28.23170         6.37192         0.35975
C         28.25926         7.76874         0.38782
C         29.49151         5.60604         0.14834
C         29.55261         8.47791         0.54706
C         28.29705        10.69686         0.11235
C         28.32956        12.02514        -0.28481
C         29.57086        10.00085         0.41785
C         29.60630        12.74376        -0.66881
C         28.38336        14.92998        -0.38470
C         28.34863        16.36896        -0.45897
C         29.57997        14.23973        -0.37083
C         29.54301        17.14781        -0.27843
C         28.33387        19.35798         0.19756
C         29.51674        18.56881         0.00627
C         30.59536         2.06145         1.13902
C         30.68161         3.41227         0.77027
C         31.90690         4.14855         0.88835
C         30.82745         6.29933         0.24159
C         30.83992         7.77362         0.42603
C         31.99362         5.48945         0.65365
C         32.00666         8.50126         0.39971
C         30.86028        10.66486         0.14231
C         30.86833        12.07441        -0.17556
C         32.02160         9.91815         0.26893
C         32.01880        12.83920        -0.11049
C         30.81576        14.97562        -0.29588
C         30.78545        16.43568        -0.17924
C         32.00707        14.24853        -0.24295
C         31.97026        17.14908         0.06884
C         30.74609        19.21429         0.31082
C         31.94923        18.52999         0.29674
O         13.52113         7.09527        -2.51638
O         13.42403        11.68993        -2.12428
O         11.21961         8.39623        -2.28067
O         29.52450         9.35884         1.73502
O         26.98504        13.50261        -1.80176
O         11.76853        13.95723        -1.35486
O         27.13831        18.17205        -1.47147
O         18.80623         9.95212        -1.99813
O          3.95348        15.60556        -1.65323
O         30.23106         5.96077        -1.07194
O          6.87733        14.76187         2.90488
O         15.90847         2.22428        -1.24326
O         16.85725        13.74703        -2.78149
O          7.68338         7.97032         2.39557
O          1.77905         4.83736        -0.33668
O         10.45214        13.34833         1.92466
O         15.55037        15.90256        -2.25897
O          6.94877         4.75292         1.19241
O          4.08206         3.42321        -2.80066
O         25.04964         6.21894         2.07129
O         28.74103         3.46741        -0.77819
O         14.50097        15.08034         0.87110
O          5.75031        12.41898         3.01358
O          9.87451        10.57637        -1.61440
O         13.47561         2.22099        -1.39516
O         19.58623         8.94655         1.36860
H         19.24944         8.17302         1.86965
O         12.43444         9.71041         0.84139
H         12.62980        10.55359         1.30510
O         12.95489        16.61667        -2.09314
H         13.70741        16.25380        -2.61921
O         19.13648         5.66007         1.35828
H         19.83251         5.19851         1.87267
O         21.26132        10.53230        -2.46354
H         20.38871        10.55025        -2.92558
O          5.37630         9.06318         3.32614
H          6.24818         8.55188         3.23144
O         18.80173         6.44251        -2.20550
H         18.17198         7.03443        -2.67109
O          9.21134         5.96165         1.60606
H          8.69979         6.56832         2.22670
O          2.57250         9.69044         3.72977
H          3.44436         9.35067         4.04498
O          3.30156         8.75544        -0.56253
H          2.35745         8.56551        -0.74717
O          9.50792         0.96707         1.46996
H          9.31784         1.78483         1.97576
O         21.12112        16.60810        -2.57800
H         20.33530        16.15866        -2.99262
O         20.02665         4.11271        -1.89644
H         19.50759         4.79428        -2.38717
O         25.87751        14.96311         1.37703
H         25.76723        14.03799         1.69229
O          9.69599        19.05366         2.52253
H          8.83600        18.65606         2.81340
O         19.39364         0.62346         1.73488
H         19.49819         1.23149         2.49483
O         23.36074        16.36765         1.37728
H         24.21518        15.95516         1.66183
O         17.20457        10.18524         1.29180
H         16.62032        10.93424         1.53902
O         29.66904        12.66530        -2.13680
H         28.81149        13.02061        -2.47310
O         18.78229        15.24743        -2.95741
H         18.10769        14.65365        -3.41852
O         25.72089        11.06426         1.96523
H         25.74596        10.20765         2.44448
O         14.61363        12.61032         1.20255
H         14.57854        13.48990         1.65929
O          7.25194        17.58805         2.75128
H          7.16234        16.74800         3.26362
O          6.38499         7.01601        -1.62761
H          5.68184         7.64253        -1.90104
O          8.97011         5.78488        -2.05406
H          9.08218         6.70922        -2.36419
H          0.64213         1.76515        -3.23167
H          0.32558         3.79076        -2.03322
H          2.64680         0.38259        -2.91423
H          0.56944         5.70310         1.57976
H          1.00641         7.78926         2.90261
H          0.48995         9.90301         1.82663
H          0.53954        12.03094         0.64151
H          0.64552        13.82286        -0.11283
H          0.72234        16.03806        -1.12152
H          1.94509        18.20179        -1.56038
H          5.06935         0.42408        -1.60892
H          3.92494        19.61203        -1.17704
H          7.11721         0.42510        -0.71961
H          6.20582        19.90008        -0.58073
H          9.64912         0.35212        -0.48939
H          8.58958        20.13923        -0.17617
H         11.83643         0.41772         0.87227
H         11.18318        20.51141         0.85249
H         14.49209         0.64919         1.45312
H         13.61845        20.48766         0.31620
H         17.14124         0.88291         1.58241
H         16.09529        20.36466         0.13559
H         19.56926         0.63460        -0.30988
H         18.49827        20.29880         0.06415
H         21.91338         0.41814         1.17918
H         20.91019        20.30928        -0.09038
H         24.41532         0.39533         1.41504
H         23.33911        20.27474         0.20723
H         26.86967         0.38734         1.66933
H         25.64679        20.28890         0.67726
H         29.37376         0.34428         1.61273
H         28.41541        20.23508         0.85768
H         31.52423         1.52555         1.38522
H         32.80280         3.60132         1.21848
H         32.95016         6.00191         0.82824
H         32.97269         7.97896         0.35375
H         32.99939        10.39770         0.12543
H         32.98082        12.36513         0.13142
H         32.97426        14.76571        -0.19677
H         32.93452        16.62730         0.11852
H         30.73178        20.28957         0.53940
H         32.88857        19.06204         0.50066
