         424
 CSIRO Nanostructure Databank - Neutral Graphene Oxide Data Set
C          1.26012         3.42772         0.30140
C          0.06932         4.10936         0.14001
C          1.21458         6.26858         0.28419
C          0.04231         5.51607         0.12472
C          1.20706         7.72612         0.28086
C         -0.00130         8.45543         0.00336
C          1.15270        10.61822         0.10377
C         -0.00858         9.81855        -0.14017
C          1.15259        12.00214        -0.03148
C         -0.01734        12.73528        -0.40272
C          1.20314        14.86534        -0.42276
C         -0.01092        14.10037        -0.51155
C          1.20323        16.28546        -0.69460
C          0.00342        16.98988        -0.93474
C          1.20885        19.09423        -1.07482
C          0.01304        18.36247        -1.13092
C          1.16199        20.57924        -1.32725
C         -0.00971        21.27336        -0.67736
C          1.20615        23.39250        -0.73591
C          0.01175        22.61054        -0.47991
C          1.19065        24.82397        -0.64709
C         -0.01676        25.54884        -0.57403
C          1.17029        27.67625        -0.37041
C         -0.02541        26.93376        -0.46738
C          1.16447        29.11909        -0.29098
C         -0.03329        29.86532        -0.59643
C          1.06082        32.01776        -0.12286
C         -0.06365        31.22469        -0.62309
C          1.13259        33.48513        -0.50663
C         -0.08841        34.25326        -0.06395
C          1.22248        36.29922         0.18154
C         -0.03308        35.57765         0.19524
C          1.26186        37.68764         0.36284
C          3.70431         3.45958         0.59375
C          2.48113         4.14331         0.46303
C          3.66773         6.30533         0.64102
C          2.45764         5.58121         0.47037
C          3.63892         7.75215         0.63368
C          2.39387         8.43743         0.48212
C          3.65662        10.63966         0.40628
C          2.35612         9.93444         0.72042
C          3.65407        12.02988         0.23158
C          2.36416        12.79731         0.41919
C          3.64842        14.88771        -0.28258
C          2.40814        14.20665        -0.13691
C          3.67097        16.29095        -0.56008
C          2.43560        17.00274        -0.70163
C          3.68425        19.15194        -0.86996
C          2.43492        18.42100        -0.88920
C          3.68222        20.57275        -0.93158
C          2.45424        21.29375        -1.02032
C          3.69424        23.46341        -1.18482
C          2.42440        22.69650        -0.92877
C          3.66413        24.88362        -0.69810
C          2.43438        25.55513        -0.57803
C          3.64330        27.67621        -0.20787
C          2.41997        26.97424        -0.36514
C          3.62769        29.11400        -0.04634
C          2.37274        29.80498        -0.08796
C          3.64306        31.98907         0.03843
C          2.36670        31.25949         0.11191
C          3.63778        33.42077        -0.00753
C          2.42661        34.15252        -0.09040
C          3.69814        36.25328         0.11354
C          2.44740        35.55768         0.06166
C          3.70369        37.68603         0.30798
C          2.47821        38.37042         0.42922
C          6.15770         3.48004         0.80944
C          4.92105         4.16119         0.72639
C          6.12736         6.30247         0.94086
C          4.90279         5.60210         0.76818
C          6.07854         7.76955         1.07093
C          4.83759         8.48475         0.74131
C          6.12239        10.55799         0.28722
C          4.88002         9.89884         0.50586
C          6.09076        11.95721        -0.17998
C          4.85668        12.74212         0.00349
C          6.12099        14.84836        -0.38307
C          4.88119        14.14753        -0.21047
C          6.12325        16.25704        -0.59112
C          4.91409        16.98931        -0.68224
C          6.13245        19.16619        -0.70838
C          4.92325        18.43891        -0.78466
C          6.14624        20.59221        -0.57557
C          4.91823        21.30444        -0.75931
C          6.13963        23.42265        -0.59733
C          4.93285        22.71249        -0.77335
C          6.13589        24.86261        -0.54586
C          4.88607        25.57270        -0.52571
C          6.12630        27.65920        -0.08616
C          4.88381        26.97357        -0.26218
C          6.07927        29.05317         0.47993
C          4.82745        29.82346         0.13452
C          6.09906        31.96731         0.21259
C          4.84276        31.25819         0.13226
C          6.10845        33.35938         0.08315
C          4.89484        34.12290         0.00466
C          6.15953        36.34882        -0.32950
C          4.90973        35.54120        -0.01099
C          6.16439        37.71314         0.33053
C          4.93964        38.36506         0.49139
C          8.61456         3.48956         0.86064
C          7.37713         4.17898         0.88761
C          8.61525         6.33670         0.95599
C          7.36133         5.62256         0.95962
C          8.63532         7.75310         0.88163
C          7.39280         8.53067         1.00352
C          8.60741        10.55636         0.28265
C          7.37418         9.91762         0.49089
C          8.71946        11.92957        -0.34492
C          7.39467        12.68847        -0.40739
C          8.56557        14.87006        -0.07568
C          7.37493        14.15839        -0.29299
C          8.64545        16.26878        -0.32980
C          7.41561        16.91595        -0.81160
C          8.65839        19.16741        -0.54596
C          7.42813        18.50459        -0.86260
C          8.62376        20.55965         0.02579
C          7.35908        21.30098        -0.36835
C          8.60428        23.46175        -0.37128
C          7.36618        22.71302        -0.40325
C          8.59193        24.84886        -0.47176
C          7.35025        25.57001        -0.44965
C          8.61663        27.70834        -0.09194
C          7.34413        26.99752        -0.23970
C          8.62307        29.10404         0.24208
C          7.35876        29.82914         0.31942
C          8.56650        31.93089         0.76315
C          7.33133        31.20313         0.37929
C          8.59023        33.40921         0.61372
C          7.40172        34.08232         0.01925
C          8.66706        36.26907         0.37130
C          7.45265        35.57208        -0.11320
C          8.62473        37.67070         0.61558
C          7.37990        38.35238         0.61778
C         11.06963         3.48243         0.75686
C          9.84755         4.17468         0.86089
C         11.08177         6.32450         0.88341
C          9.84950         5.62358         0.90890
C         11.08490         7.75061         0.80089
C          9.84760         8.45641         0.74345
C         11.06731        10.59516         0.53468
C          9.83962         9.88132         0.53787
C         11.05667        12.04436         0.50698
C          9.85608        12.70339         0.27138
C         11.06044        14.93107         0.56919
C          9.75847        14.15028         0.41272
C         11.06645        16.34655         0.15508
C          9.86052        16.98460        -0.24574
C         11.14771        19.15585        -0.28302
C          9.93772        18.40895        -0.78076
C         11.17356        20.63176        -0.56599
C          9.87576        21.35353        -0.28412
C         11.12214        23.48135        -0.40779
C          9.86582        22.72457        -0.36608
C         11.12270        24.88687        -0.50538
C          9.84290        25.62450        -0.81316
C         11.07129        27.74296        -0.19694
C          9.83420        27.04542        -0.29654
C         11.08144        29.13093         0.12387
C          9.84308        29.78725         0.35811
C         11.10582        31.96531         0.58180
C          9.87156        31.16808         0.96248
C         11.08548        33.39854         0.61899
C          9.88153        34.12353         0.56598
C         11.09745        36.24307         0.84582
C          9.86866        35.54547         0.56034
C         11.05804        37.68925         0.98017
C          9.83901        38.35797         0.90838
C         13.51700         3.45248         0.64363
C         12.32592         4.15519         0.77786
C         13.54113         6.32274         0.89347
C         12.33300         5.61505         0.88983
C         13.54782         7.76536         0.80392
C         12.30867         8.47311         0.74589
C         13.53722        10.61727         0.64080
C         12.30242         9.89892         0.65689
C         13.54925        12.05290         0.63214
C         12.30483        12.77198         0.63302
C         13.54966        14.89474         0.48935
C         12.32255        14.17665         0.56213
C         13.53804        16.32463         0.37584
C         12.28813        17.03689         0.20183
C         13.50158        19.19061         0.61258
C         12.27041        18.48501         0.09507
C         13.52118        20.68443         0.33238
C         12.36997        21.36260        -0.00529
C         13.55024        23.53985        -0.09685
C         12.35299        22.80601        -0.16087
C         13.57557        24.92811        -0.35765
C         12.33522        25.61587        -0.48463
C         13.52810        27.78792        -0.38797
C         12.32378        27.07116        -0.40903
C         13.54305        29.18761        -0.10835
C         12.32640        29.85157         0.17364
C         13.56157        32.00763         0.38005
C         12.31291        31.28373         0.39042
C         13.54085        33.40945         0.65412
C         12.32915        34.12072         0.72530
C         13.51765        36.25782         1.47600
C         12.29276        35.53526         0.96174
C         13.50738        37.73561         1.15120
C         12.29340        38.40304         1.07778
C         16.04908         3.44450         0.36606
C         14.82840         4.11003         0.95072
C         15.95738         6.29685         0.51747
C         14.79989         5.61024         0.74273
C         16.05814         7.75185         0.88021
C         14.75554         8.48263         0.71595
C         16.00712        10.60682         0.48133
C         14.76382         9.89654         0.62238
C         16.01817        12.02004         0.49321
C         14.78053        12.75236         0.59845
C         16.01312        14.91250         0.49136
C         14.79251        14.19202         0.54579
C         16.00250        16.31358         0.32811
C         14.76600        17.00905         0.29317
C         16.02975        19.17917         0.49875
C         14.74990        18.49458         0.02170
C         15.96021        20.63909         0.13241
C         14.79221        21.36785         0.29572
C         15.97630        23.48678        -0.46032
C         14.83688        22.88478         0.33613
C         16.02738        24.92824        -0.69688
C         14.83618        25.63278        -0.53398
C         16.07717        27.82111        -0.58395
C         14.78091        27.10164        -0.88323
C         16.04375        29.23131        -0.34170
C         14.80392        29.91991        -0.11336
C         16.03960        32.13662        -0.00946
C         14.78158        31.31258         0.14919
C         16.07903        33.36080         0.89531
C         14.79435        34.09581         1.03932
C         15.99187        36.28351         0.95366
C         14.81465        35.56601         1.14274
C         15.95648        37.74504         0.92323
C         14.73550        38.42383         1.02801
C         18.39030         3.48858        -0.43892
C         17.14939         4.13489        -0.01321
C         18.42737         6.33158         0.05877
C         17.11801         5.63452        -0.17175
C         18.44135         7.73596         0.05313
C         17.23875         8.46870         0.28781
C         18.44967        10.58795         0.03826
C         17.22970         9.87591         0.26443
C         18.44844        12.00985         0.15062
C         17.26639        12.71289         0.38285
C         18.47051        14.88109        -0.04180
C         17.33140        14.19750         0.69011
C         18.42611        16.30760        -0.20398
C         17.25928        17.03241         0.07165
C         18.37879        19.19491        -0.40179
C         17.25911        18.46418        -0.00877
C         18.33871        20.62236        -0.56390
C         17.11573        21.28118        -0.41993
C         18.74726        23.61103        -1.25483
C         16.90430        22.60719        -0.94091
C         18.55949        25.02032        -0.99840
C         17.30643        25.65804        -0.87951
C         18.56678        27.87437        -0.89999
C         17.27380        27.10219        -0.71241
C         18.53490        29.28748        -0.38883
C         17.30105        29.96443        -0.22854
C         18.53702        32.08759         0.09895
C         17.31493        31.34794         0.05286
C         18.55079        33.49644         0.32904
C         17.38856        34.14342         1.03599
C         18.42002        36.36055         0.51216
C         17.25552        35.62329         0.73962
C         18.37430        37.80827         0.51858
C         17.16052        38.46359         0.72660
C         19.56364         4.14903        -0.43796
C         20.85615         6.31859        -0.45728
C         19.70192         5.54325         0.12508
C         20.83848         7.66657        -0.56174
C         19.66545         8.45747        -0.22934
C         20.86276        10.63404        -0.50838
C         19.65986         9.86178        -0.23250
C         20.90899        11.97387        -0.37220
C         19.75979        12.76550         0.18527
C         20.67777        14.81980        -1.09115
C         19.61267        14.17023        -0.36624
C         20.70469        16.16940        -1.24308
C         19.67477        16.99680        -0.59751
C         20.55805        19.24494        -1.66205
C         19.64676        18.50437        -0.74106
C         20.56044        20.58736        -1.65942
C         19.71227        21.30810        -0.62512
C         20.78601        23.54225         0.01328
C         19.74637        22.83275        -0.70570
C         20.86151        24.89258        -0.03854
C         19.90166        25.70533        -0.88728
C         20.97374        27.84751        -0.22692
C         19.81939        27.14774        -0.49902
C         20.97627        29.25318        -0.16799
C         19.76842        29.97942        -0.24903
C         20.95584        32.18028        -0.25913
C         19.77346        31.41703        -0.12035
C         20.92277        33.55941        -0.18778
C         19.72570        34.24205         0.15634
C         20.83437        36.47622         0.15217
C         19.69323        35.70265         0.29319
C         20.78203        37.89522         0.18570
C         19.58628        38.54951         0.34632
O         10.20394        14.65057         1.72680
O          7.50743        17.63268        -2.07158
O          8.29302        32.81318         1.93257
O          6.71597         8.31465         2.28815
O          7.72311        34.68873        -1.28183
O          1.48973        31.71742         1.22459
O         17.74272        22.98069        -2.00096
O         15.40204        33.27658         2.17372
O         20.28109        17.90166         0.44457
O          6.62466        12.18753        -1.56246
O         20.01792         5.35704         1.55855
H         20.00581         6.24416         1.97724
O         13.40721        36.18081         2.94746
H         14.20258        36.61592         3.32185
O         20.06946        12.96754         1.62091
H         20.18611        12.07858         2.01982
O          0.96010        20.72305        -2.78488
H          0.90152        21.68508        -2.97046
O         17.63964        14.29347         2.11715
H         18.55107        13.92145         2.22990
O          3.78177        23.56820        -2.66173
H          3.85557        22.65366        -3.01050
O         15.98872        32.71492        -1.36395
H         16.04017        31.97485        -2.00616
O         16.09575        19.09586         1.95500
H         16.91126        19.55420         2.24855
O          9.13110        11.70056        -1.73389
H          8.29671        11.56472        -2.24295
O          2.20832        12.95299         1.87170
H          2.21357        12.03879         2.25348
O         17.77010        34.09588         2.44880
H         16.93754        33.90967         2.94940
O          2.17741        10.10350         2.18499
H          1.37917         9.59255         2.44026
O         20.46812        25.72497        -2.26433
H         20.51223        24.79204        -2.56849
O         14.72193        18.68098        -1.41553
H         13.85381        18.36896        -1.74947
O         20.29897        21.01279         0.67631
H         20.42988        20.04216         0.75581
O         13.45274        19.01928         2.04494
H         14.35385        19.20061         2.40600
O          6.06982        36.63545        -1.75796
H          6.49555        35.87384        -2.21704
O          8.58426        20.42580         1.50053
H          8.59789        21.33084         1.87877
O         15.00997        23.21692         1.75601
H         14.95048        24.19275         1.83564
O          1.12225        33.48546        -1.97425
H          1.16305        34.41928        -2.27107
O         11.35305        20.73138        -2.03100
H         10.88119        19.95549        -2.43022
O         18.71350        28.00258        -2.37621
H         19.22553        27.21693        -2.68727
O         16.83894         5.86239        -1.61243
H         16.00114         5.39701        -1.82348
O         10.11956        18.28227        -2.25734
H          9.25095        17.94747        -2.60239
O         14.67230        27.14843        -2.35555
H         13.85355        26.66679        -2.60189
O         10.01060        30.93261         2.39864
H          9.62332        31.72248         2.84436
O         14.98512         3.95590         2.41887
H         14.13128         4.21097         2.82943
O          5.99017        28.83717         1.94548
H          6.00855        29.72008         2.37395
O         16.34020         7.75261         2.33944
H         15.62308         7.24081         2.77217
O          9.80764        25.75920        -2.28343
H          9.81474        24.85269        -2.65883
H          1.27967         2.32857         0.30113
H         -0.87070         3.55374         0.01547
H         -0.92671         6.01369        -0.01192
H         -0.93308         7.90694        -0.18550
H         -0.94035        10.30285        -0.46250
H         -0.95654        12.19974        -0.59803
H         -0.95207        14.60354        -0.76782
H         -0.95903        16.46382        -0.96577
H         -0.93495        18.87746        -1.33679
H         -0.92427        20.70461        -0.45707
H         -0.87682        23.11101        -0.06942
H         -0.97816        25.02097        -0.63335
H         -0.99533        27.44774        -0.43870
H         -0.91646        29.31681        -0.95166
H         -0.92576        31.74804        -1.06120
H         -1.05351        33.72579        -0.04648
H         -0.94857        36.13513         0.44542
H          0.31833        38.24176         0.47292
H          3.71427         2.35979         0.57230
H          2.48586        39.45769         0.59225
H          6.16756         2.38056         0.77269
H          4.92475        39.41382         0.82611
H          8.61108         2.39087         0.80073
H          7.36120        39.40724         0.93251
H         11.05884         2.38528         0.67512
H          9.81094        39.44993         1.03915
H         13.48823         2.35661         0.54343
H         12.27966        39.50053         0.99194
H         16.09046         2.34459         0.42073
H         14.72206        39.51840         0.91114
H         18.34760         2.43195        -0.74723
H         17.13111        39.56333         0.73612
H         20.48620         3.63519        -0.74893
H         21.76976         5.76102        -0.71437
H         21.73626         8.17997        -0.93512
H         21.76679        10.10424        -0.84028
H         21.86098        12.49502        -0.54765
H         21.49306        14.21432        -1.51086
H         21.55607        16.65775        -1.73758
H         21.20334        18.67883        -2.35077
H         21.20996        21.15553        -2.34191
H         21.51421        22.96043         0.59442
H         21.68407        25.41176         0.47233
H         21.92538        27.31468        -0.09208
H         21.92754        29.77381        -0.00014
H         21.91027        31.68255        -0.47721
H         21.85294        34.11889        -0.35292
H         21.81421        36.00407         0.00057
H         21.71411        38.46526         0.06680
H         19.54385        39.64810         0.35946
