         210
 CSIRO Nanostructure Databank - Neutral Graphene Oxide Data Set
C         30.78220        31.72886        -1.92266
C         30.86866        32.97096        -1.98161
C         30.86074        36.10790        -1.90435
C         30.81794        37.35234        -1.79771
C         30.75320        40.45108        -1.43799
C         30.64508        41.68860        -1.29263
C         32.89873        28.94038        -0.71449
C         31.89092        29.49471        -1.22915
C         32.98997        31.62086        -0.95809
C         31.80795        30.88860        -1.40126
C         33.07951        33.07049        -1.13379
C         31.95755        33.82923        -1.66074
C         33.18201        36.01731        -1.50466
C         31.94523        35.22229        -1.71611
C         33.12038        37.47354        -1.21802
C         31.91314        38.19717        -1.43059
C         33.01352        40.32480        -0.79671
C         31.86374        39.59526        -1.24304
C         32.95220        41.75289        -0.57176
C         31.71230        42.49225        -0.80487
C         32.81916        44.37339         0.05889
C         31.79920        43.85600        -0.47878
C         35.35702        27.42521         0.54516
C         35.24774        28.79378         0.25681
C         34.09057        29.50564        -0.22858
C         35.20769        31.66371         0.32882
C         34.08101        30.91763        -0.36438
C         35.35017        33.10110        -0.13498
C         34.25590        33.76885        -0.75368
C         35.47193        35.97147        -0.33317
C         34.40991        35.21438        -1.02088
C         35.44018        37.41752        -0.29852
C         34.26207        38.15825        -0.71471
C         35.37469        40.27401        -0.05795
C         34.21170        39.57798        -0.51653
C         35.35296        41.68677         0.15044
C         34.10692        42.42666        -0.04605
C         35.18318        44.37162         1.14327
C         34.06404        43.79967         0.32598
C         35.31396        45.89892         1.17063
C         37.69162        27.33953         1.02298
C         36.39965        26.80870         0.90575
C         37.68775        28.72829         0.73128
C         36.50917        29.45538         0.38188
C         37.69700        31.61757         0.47239
C         36.53315        30.91377         0.30646
C         37.65278        33.07266         0.87077
C         36.50614        33.80696         0.20830
C         37.69945        35.91442         0.81043
C         36.53466        35.23426         0.19764
C         37.71587        37.42351         0.76796
C         36.55543        38.12723         0.18665
C         37.78835        40.25090         0.50727
C         36.57728        39.55223         0.21087
C         37.77959        41.66135         0.59993
C         36.54434        42.35125         0.50023
C         37.77140        44.40793         1.36645
C         36.54367        43.86140         0.57811
C         37.80133        45.94292         1.28469
C         36.45615        46.37664         1.33764
C         40.09207        24.52795         0.90285
C         39.07532        25.18936         1.12947
C         40.24549        27.25904         0.98665
C         38.92258        26.62438         1.51503
C         40.23955        28.74330         1.07420
C         38.98298        29.42691         0.62404
C         40.26109        31.67654         0.62623
C         38.99539        30.92584         0.44124
C         40.23843        33.08472         0.68373
C         38.97653        33.80744         0.75045
C         40.25709        35.86631         1.30474
C         38.98319        35.17171         0.85407
C         40.23018        37.40049         1.19936
C         39.00335        38.14114         0.85030
C         40.28557        40.25686         0.64323
C         39.03259        39.51971         0.68259
C         40.27544        41.68559         0.58384
C         39.04082        42.39478         0.70233
C         40.26826        44.53425         0.79319
C         39.05782        43.78693         0.87571
C         40.26184        45.96686         0.90557
C         38.97983        46.63939         1.12218
C         40.18795        48.73446         1.00592
C         39.14769        48.05366         1.11597
C         42.68055        24.43793         0.65751
C         41.33692        25.04508         0.25304
C         42.67234        27.31467         0.52729
C         41.38917        26.58887         0.65883
C         42.73236        28.74007         0.55148
C         41.51599        29.50131         0.86062
C         42.70645        31.61306         0.36685
C         41.48524        30.95374         0.58167
C         42.65498        33.06618         0.12690
C         41.45695        33.82460         0.53660
C         42.73689        35.94673         0.59345
C         41.50634        35.22045         0.70275
C         42.77248        37.38166         0.71620
C         41.53585        38.14080         0.97518
C         42.74952        40.26744         0.46715
C         41.51407        39.57367         0.63396
C         42.74294        41.69505         0.39146
C         41.50546        42.40597         0.51115
C         42.72968        44.55580         0.46082
C         41.50022        43.83456         0.56810
C         42.71216        45.98872         0.54298
C         41.47844        46.70979         0.75526
C         42.75314        48.75523         0.66732
C         41.47987        48.17485         0.81353
C         43.65112        25.20527         0.45155
C         45.17439        27.24649         0.01809
C         43.88549        26.59330         0.39558
C         45.18972        28.77093         0.26615
C         43.95718        29.46258         0.36061
C         45.18900        31.62907         0.24307
C         43.94640        30.90952         0.32408
C         45.22104        33.04891         0.20167
C         43.97410        33.81323         0.03853
C         45.20324        35.90937         0.36374
C         43.96903        35.25348         0.33899
C         45.22728        37.36832         0.56907
C         43.95927        38.11259         0.56577
C         45.21305        40.25465         0.17583
C         43.98527        39.54182         0.43994
C         45.20122        41.68653         0.08674
C         43.97142        42.40933         0.25240
C         45.20150        44.54274         0.13873
C         43.96011        43.83991         0.27252
C         45.17607        45.97616         0.20843
C         43.96534        46.68052         0.40629
C         43.79742        48.07434         0.49713
C         47.44944        27.41058         0.71639
C         46.41469        26.72448         0.72804
C         47.67479        28.81658         0.56639
C         46.41561        29.49137         0.34223
C         47.68185        31.61949         0.27806
C         46.43177        30.91932         0.29968
C         47.69260        33.05024         0.24936
C         46.44489        33.75470         0.25476
C         47.66384        35.87982         0.03250
C         46.43630        35.19206         0.23583
C         47.59156        37.30853        -0.35288
C         46.48908        38.11765         0.22524
C         47.63568        40.23647        -0.40058
C         46.43579        39.56369        -0.05010
C         47.64946        41.66922        -0.36381
C         46.43142        42.38580        -0.11632
C         47.68340        44.50640        -0.18862
C         46.43072        43.82211        -0.06167
C         47.54016        45.91155        -0.09441
C         46.46749        46.53541         0.06753
C         51.21090        28.67137        -1.87469
C         48.89594        29.49008         0.55088
C         50.14482        31.62264         0.02799
C         48.92311        30.89830         0.25331
C         50.15028        33.03443         0.18318
C         48.92926        33.77185         0.22625
C         50.10645        35.96636        -0.26335
C         48.90122        35.21039         0.04717
C         50.06632        37.24088        -0.80670
C         48.81047        38.02911        -0.85914
C         50.04003        40.21132        -0.97285
C         48.85064        39.52107        -0.74060
C         50.11887        41.64356        -0.76528
C         48.89801        42.36011        -0.51025
C         50.19072        44.31378        -0.48794
C         48.89279        43.79505        -0.38220
C         51.27466        29.72123        -1.18303
C         52.46206        31.76976        -0.35005
C         51.32965        30.91124        -0.49655
C         52.59868        32.96202        -0.02413
C         51.43125        33.80303         0.27251
C         52.52260        36.08589        -0.48159
C         51.41481        35.29024         0.04628
C         52.45150        37.10822        -1.16921
C         51.26196        37.93745        -1.37123
C         52.44021        40.27397        -1.44538
C         51.23844        39.44090        -1.47330
C         52.47852        41.46190        -1.09201
C         51.38760        42.34754        -0.83812
C         51.29965        43.73712        -0.65591
O         39.13915        30.00831        -0.71640
O         51.49997        34.74055         1.37044
O         51.01917        38.59915        -2.62554
O         40.93006        29.26072         2.24120
O         37.38327        36.68112         2.02072
O         43.21179        33.46667        -1.17360
O         34.24734        35.62168        -2.42280
O         47.78570        37.52840        -1.78984
O         40.96284        37.96442         2.34230
O         46.18892        37.78753         1.61645
O         40.32942        35.54008         2.72508
H         40.74812        36.31563         3.17090
O         37.68367        44.03471         2.75229
H         36.75178        44.14876         3.05544
O         38.94780        26.76538         2.93132
H         39.71186        26.26709         3.28868
O         49.97196        28.77924         0.93337
H         50.80583        29.28387         0.86043
O         36.64099        44.32022        -0.78564
H         36.40019        45.27172        -0.81346
O         34.81721        31.75540         1.73450
H         35.57306        32.17608         2.21548
O         45.33918        27.03378        -1.38676
H         46.22911        27.34955        -1.65055
O         41.21708        25.00064        -1.13797
H         41.14524        24.06967        -1.43140
O         35.01444        43.91957         2.48734
H         34.12992        44.19944         2.80438
O         37.34162        33.04770         2.31224
H         37.49940        33.94893         2.67202
