         324
 CSIRO Nanostructure Databank - Neutral Graphene Oxide Data Set
C          1.22065         2.27014         1.32175
C          1.21859         3.63645         1.17774
C          2.42686         1.54522         1.45949
C          2.49640         4.40491         1.38760
C          1.51358         6.66887         1.35289
C          1.50781         8.06854         1.01425
C          2.45701         5.82467         0.86463
C          2.44212         8.61536         0.19063
C          1.27041        10.78361        -0.03971
C          1.28216        12.16043        -0.22501
C          2.47037        10.05244        -0.06248
C          2.49458        12.84665        -0.36876
C          1.28586        15.10020        -0.77079
C          1.35724        16.43138        -1.03727
C          2.48400        14.33189        -0.39819
C          2.62267        17.11446        -1.20667
C          2.66335        18.52281        -1.56386
C          3.67925         2.18576         1.23701
C          3.70659         3.59974         0.98690
C          4.87565         1.45295         1.12723
C          4.87150         4.20626         0.52241
C          3.50766         6.32317        -0.06591
C          3.48627         7.79907        -0.52613
C          4.78554         5.53277        -0.13578
C          4.84619         8.50894        -0.47983
C          3.70779        10.69890        -0.28645
C          3.72728        12.12340        -0.38864
C          4.92841         9.88980        -0.43403
C          4.98675        12.81035        -0.53613
C          3.82524        15.03263        -0.60460
C          3.80354        16.40394        -1.12410
C          5.04422        14.19554        -0.72867
C          5.07993        16.99585        -1.66084
C          3.84509        19.18970        -1.71209
C          5.11607        18.50890        -1.62657
C          6.09196         2.09233         0.78889
C          6.09026         3.48513         0.43599
C          7.30415         1.36538         0.77407
C          7.32029         4.15662         0.09870
C          6.05330         6.19828        -0.61538
C          6.03867         7.70385        -0.83150
C          7.35268         5.51450        -0.35693
C          7.35754         8.40857        -1.04036
C          6.22066        10.56754        -0.56063
C          6.26536        12.05278        -0.24838
C          7.39498         9.87856        -0.79297
C          7.50656        12.74061        -0.77117
C          6.28376        14.86171        -0.94213
C          6.29136        16.34753        -1.02865
C          7.48924        14.13398        -0.99928
C          7.57755        17.10461        -1.08458
C          6.31305        19.18595        -1.65946
C          7.58830        18.52483        -1.51429
C          8.53088         2.02740         0.57423
C          8.53327         3.43715         0.27577
C          9.75812         1.33211         0.69009
C          9.77165         4.13512         0.22622
C          8.60014         6.18459        -0.52741
C          8.64681         7.60002        -1.03769
C          9.78774         5.51597        -0.13525
C          9.98431         8.38259        -1.15644
C          8.69264        10.55295        -0.74113
C          8.72360        11.98721        -0.77421
C          9.90976         9.83812        -0.70719
C          9.97938        12.65758        -0.84480
C          8.74410        14.86417        -1.29545
C          8.83642        16.34812        -1.19003
C         10.02086        14.10401        -1.14419
C         10.02075        17.01685        -1.34412
C          8.79873        19.17049        -1.62064
C         10.05407        18.47534        -1.42332
C         10.98411         2.02686         0.73134
C         10.96954         3.44423         0.57402
C         12.22621         1.31537         0.86372
C         12.16628         4.20377         0.96144
C         11.11912         6.16949        -0.20681
C         11.19752         7.61057        -0.63762
C         12.27714         5.61401         0.53853
C         12.40650         8.36311        -0.27553
C         11.14555        10.53729        -0.68787
C         11.18435        11.95199        -0.76601
C         12.41798         9.78789        -0.64693
C         12.50427        12.69735        -0.97888
C         11.18601        14.93631        -0.65679
C         11.32815        16.25962        -1.45238
C         12.44043        14.14819        -0.58508
C         12.50529        17.07789        -0.94858
C         11.25723        19.15477        -1.33857
C         12.50197        18.47232        -1.03693
C         13.45144         1.96740         1.00710
C         13.43329         3.41690         1.29266
C         14.70217         1.30964         0.88680
C         14.73225         4.15341         1.34885
C         13.46349         6.31791         0.62785
C         13.53402         7.71919         0.21448
C         14.71044         5.65621         1.10972
C         14.75200         8.47890         0.46489
C         13.70080        10.57889        -0.31934
C         13.62872        12.01560        -0.23649
C         14.82849         9.84804         0.28525
C         14.69044        12.73788         0.44780
C         13.69085        14.88638        -0.46133
C         13.75076        16.38924        -0.61805
C         14.71765        14.22804         0.39215
C         14.91284        17.15485        -0.08712
C         13.73660        19.17147        -0.88041
C         14.94041        18.57262        -0.42872
C         15.94442         1.98889         0.86851
C         15.98445         3.43519         1.04088
C         17.15403         1.28642         0.65893
C         17.15838         4.14359         0.85348
C         16.00552         6.30400         0.84035
C         15.96550         7.77138         0.89664
C         17.20434         5.59630         0.86655
C         17.27709         8.51447         0.79869
C         16.07078        10.58492         0.45097
C         16.02068        12.04030         0.68469
C         17.27859         9.94805         0.51208
C         17.28538        12.81973         0.78384
C         15.96252        14.97314         0.71230
C         16.00071        16.43369         0.42387
C         17.23975        14.23895         0.90478
C         17.15354        17.04948         0.97209
C         16.16023        19.32634        -0.52049
C         17.31604        19.00383         0.21902
C         18.39113         1.95146         0.47073
C         18.36968         3.42738         0.42039
C         19.59757         1.29507         0.21140
C         19.71278         4.17812         0.45764
C         18.48929         6.27945         0.78860
C         18.49529         7.71719         0.56526
C         19.73544         5.61897         0.80270
C         19.81636         8.51076         0.71983
C         18.57633        10.70519         0.33043
C         18.51493        12.14188         0.79679
C         19.75339         9.96965         0.91001
C         19.72917        12.82946         1.12149
C         18.44171        14.96052         1.05585
C         18.40598        16.41104         1.10561
C         19.67601        14.25735         1.23135
C         19.59197        17.18279         1.28281
C         18.68869        19.19233        -0.00597
C         19.72958        18.54083         0.73989
C         20.85450         1.98835         0.15212
C         20.91528         3.36829         0.47043
C         22.06257         1.30786        -0.16316
C         22.20356         4.01534         0.74035
C         20.96340         6.30660         1.08856
C         20.93137         7.72500         1.24187
C         22.24184         5.48855         1.15301
C         21.95840         8.54485         1.80281
C         20.88893        10.67613         1.28645
C         20.95289        12.12756         1.36752
C         22.05783         9.91782         1.62496
C         22.17530        12.80163         1.77785
C         20.83519        14.97446         1.61343
C         20.73771        16.41020         1.73380
C         22.03745        14.26178         2.00652
C         21.79874        17.07405         2.35061
C         21.01747        19.17490         0.60750
C         22.05941        18.99396         1.52533
C         23.28996         2.00931        -0.31277
C         23.38455         3.38094         0.11513
C         24.42194         1.40076        -0.89268
C         24.53763         4.12658        -0.18206
C         23.54916         6.14740         0.83967
C         23.78233         7.49114         1.29307
C         24.54866         5.54239         0.10111
C         24.63266         8.38980         0.72565
C         23.34361        10.63202         1.41489
C         23.41377        12.07286         1.82400
C         24.55008         9.87185         0.93519
C         24.78288        12.60719         1.90227
C         23.02895        15.02246         2.64383
C         23.02572        16.45813         2.67141
C         25.02131        13.91684         2.46654
C         24.20671        17.25231         2.79913
C         23.44590        19.22129         1.41814
C         24.44287        18.52180         2.17516
C         25.64466         2.10977        -1.09367
C         25.68899         3.52416        -0.77227
C         26.76850         1.47182        -1.61576
C         26.86086         4.29113        -1.07069
C         25.58921         6.38393        -0.53088
C         25.56420         7.88528        -0.30152
C         26.85258         5.74483        -0.95749
C         26.80103         8.68852        -0.57884
C         25.88527        10.53001         1.00207
C         25.91903        11.93888         1.40832
C         27.03413         9.92581         0.23648
C         27.24332        12.59051         1.27619
C         26.12404        14.70470         2.20785
C         26.20791        16.11554         2.52871
C         27.30427        14.05734         1.60012
C         27.13918        16.95520         1.97230
C         25.77664        19.07101         2.08165
C         27.01634        18.41338         1.95661
C         28.10350         2.14570        -1.61508
C         28.00483         3.65027        -1.58608
C         29.06586         1.66188        -2.67177
C         29.15990         4.39928        -1.92875
C         27.99059         6.49596        -1.17334
C         28.02486         7.97586        -1.08977
C         29.25263         5.79782        -1.47590
C         29.32107         8.71298        -1.10314
C         28.23048        10.74207        -0.09706
C         28.30117        12.04882         0.36202
C         29.34475        10.10364        -0.76343
C         29.46352        12.86199         0.05459
C         28.29403        14.90693         0.89258
C         28.22040        16.37327         1.13358
C         29.52109        14.25364         0.37055
C         29.48566        17.15388         1.04340
C         28.13384        19.18424         1.52690
C         29.35077        18.62531         1.07122
C         30.09284         2.44209        -3.08379
C         30.22441         3.81849        -2.64089
C         31.31632         4.63817        -3.08055
C         30.49700         6.60789        -1.82287
C         30.46309         8.09149        -1.63339
C         31.42847         5.96265        -2.75367
C         31.63180         8.85660        -1.83673
C         30.53271        10.85838        -0.97845
C         30.56790        12.26526        -0.62119
C         31.65955        10.20672        -1.53483
C         31.68493        13.07559        -0.93623
C         30.63232        15.04368         0.02974
C         30.69971        16.49095         0.42375
C         31.72232        14.42232        -0.61581
C         31.67024        17.41689        -0.17673
C         30.43318        19.38770         0.62161
C         31.55118        18.77446        -0.00773
O         14.21124        15.46356        -1.73459
O         19.28367         8.10460        -0.59570
O         24.04931        14.40128         3.34584
O          9.49484        14.38522        -2.47220
O         30.35237         5.96280        -0.50308
O         27.09996         8.73356        -1.98938
O         23.03764         7.89745         2.40692
O         30.55662        16.64181         1.89391
O         12.53673         3.85472         2.34807
O          3.21652        14.91488         0.73197
O         24.97285         7.31533        -1.50162
O         16.64946         8.26289         2.10743
O         11.51375         6.52000        -1.58915
O         23.68082        10.50068        -0.06636
O         27.88198        13.07913         2.52391
O         15.06778        12.25822         1.78731
O          7.93221         7.89241        -2.27543
O          6.81183        16.95431         0.19244
O         22.32609         4.45065         2.16928
O          5.82032         6.75940        -1.94020
O         13.37888        10.08444        -1.70686
O         25.27208        16.63500         3.44870
O         14.74685         5.08413         2.46725
O         26.88673         9.67629         1.67893
O         14.88283        14.78359         1.73164
O         27.70538        15.80581        -0.13098
O         18.94738         3.96313        -0.80337
O         21.64710        18.39710         2.74778
O         17.03082        18.34378         1.44782
O          3.75948         5.43212        -1.19896
O          6.39012        12.10998         1.23232
H          6.23870        13.04123         1.50463
O         18.79048        10.77897        -1.12256
H         19.03688         9.86880        -1.41637
O          2.61606         4.55057         2.85905
H          2.59780         3.64587         3.23938
O         28.73816         1.76985        -0.31961
H         29.57552         2.27895        -0.25628
O         11.61839        15.99582        -2.83379
H         12.47956        15.51550        -2.86934
O         10.25339         8.54781        -2.57124
H         10.45774         7.65776        -2.93501
O          5.15543        16.61084        -3.07503
H          4.40842        17.04162        -3.54189
O         12.78586        12.65464        -2.41955
H         12.92528        11.70469        -2.65362
O          3.12367         7.80806        -1.92797
H          3.67743         7.11001        -2.35458
O         10.85934        15.36978         0.71315
H         11.10093        14.65242         1.33649
H          0.26965         1.71738         1.30586
H          0.27322         4.18626         1.06449
H          2.39849         0.45583         1.60121
H          0.76711         6.29923         2.06945
H          0.75857         8.71147         1.49799
H          0.31466        10.26211         0.10340
H          0.33291        12.71187        -0.20678
H          0.31273        14.59181        -0.82249
H          0.43774        16.99468        -1.25542
H          1.71082        19.06784        -1.63361
H          4.87136         0.36924         1.31551
H          3.84662        20.27817        -1.87393
H          7.29639         0.29078         1.00769
H          6.30785        20.28152        -1.77613
H          9.74572         0.24366         0.84618
H          8.82717        20.24646        -1.85236
H         12.20800         0.22012         0.76170
H         11.27025        20.25132        -1.42747
H         14.70220         0.22201         0.71994
H         13.75119        20.24841        -1.10809
H         17.12525         0.18875         0.59258
H         16.18532        20.16748        -1.22966
H         19.60619         0.19885         0.12336
H         19.00051        19.93578        -0.75543
H         22.02185         0.24075        -0.42587
H         21.15706        19.87760        -0.22795
H         24.36729         0.34381        -1.19309
H         23.80093        19.92421         0.64993
H         26.71740         0.40288        -1.87242
H         25.80323        20.14303         1.82210
H         28.99214         0.61633        -3.00603
H         28.02430        20.27952         1.49761
H         30.84248         2.05116        -3.78846
H         32.05113         4.19062        -3.76643
H         32.19952         6.57486        -3.24338
H         32.53588         8.37541        -2.23434
H         32.59146        10.76076        -1.70593
H         32.54880        12.64281        -1.45715
H         32.61384        15.00779        -0.87798
H         32.49537        17.02054        -0.78496
H         30.38560        20.48469         0.67583
H         32.32443        19.43007        -0.43412
