         234
 CSIRO Nanostructure Databank - Neutral Graphene Oxide Data Set
C          1.21020         2.02435        -0.96303
C          1.18163         3.42008        -1.15802
C          2.41675         1.36089        -0.88148
C          2.34028         4.16333        -1.39708
C          1.41053         6.28461        -0.40028
C          1.37045         7.71697        -0.16431
C          2.17545         5.64236        -1.34020
C          2.42992         8.59096        -0.27876
C          1.18757        10.72807         0.02172
C          1.17544        12.09979         0.23730
C          2.38852        10.00541         0.12251
C          2.34986        12.78788         0.58548
C          1.28643        15.03200        -0.03027
C          1.27859        16.37233        -0.04861
C          2.28843        14.26815         0.75774
C          2.26994        17.19216         0.76185
C          2.38149        18.57464         0.18358
C          3.63779         2.06813        -1.06822
C          3.60241         3.45446        -1.44913
C          4.87778         1.40435        -0.85224
C          4.89121         4.03062        -1.69527
C          3.88822         7.02447        -1.55823
C          3.74083         8.10712        -0.68341
C          5.08613         6.31542        -1.61496
C          4.92235         8.64957        -0.13802
C          3.57248        10.67689         0.52197
C          3.54890        12.06623         0.78836
C          4.86126         9.89035         0.72323
C          4.78095        12.75864         1.29689
C          3.51987        15.02343         1.19796
C          3.59908        16.45783         0.84133
C          4.79389        14.26461         1.44976
C          4.80415        17.07815         0.58083
C          3.55826        19.13191        -0.14840
C          4.82147        18.43957         0.05294
C          6.09925         2.08975        -0.85936
C          6.08207         3.46473        -1.27146
C          7.34501         1.43930        -0.51543
C          7.30028         4.28884        -0.91441
C          6.20382         6.68307        -0.86462
C          6.15501         7.97443        -0.26907
C          7.34597         5.77374        -0.56669
C          7.40908         8.62595         0.09093
C          6.09055        10.75326         0.36324
C          6.10784        12.06631         1.12470
C          7.39104         9.96839         0.44890
C          7.37151        12.85035         1.05712
C          6.09759        15.00720         1.28327
C          6.08152        16.41089         0.78754
C          7.36429        14.24641         1.11075
C          7.27388        17.06332         0.53207
C          6.00406        19.04738        -0.27291
C          7.27750        18.41902        -0.01376
C          8.57659         2.06998        -0.63233
C          8.53640         3.45176        -1.25997
C          9.81689         1.41399        -0.34662
C          9.91825         4.28892         0.35590
C          8.62860         6.48915        -0.23775
C          8.64930         7.86485        -0.07456
C          9.87882         5.67919        -0.12734
C          9.91920         8.65544        -0.12576
C          8.61169        10.72829         0.57252
C          8.59755        12.14618         0.83922
C          9.81652        10.11307         0.17566
C          9.82657        12.87607         0.92272
C          8.58841        14.98542         1.05485
C          8.56319        16.41789         0.77469
C          9.81083        14.29145         1.12724
C          9.73380        17.11658         0.56006
C          8.44340        19.09229        -0.26410
C          9.76895        18.57975         0.20147
C         11.04949         2.06681        -0.11555
C         11.07818         3.50891         0.07403
C         12.29363         1.37650        -0.21356
C         12.31599         4.19090         0.18580
C         11.26414         6.39881        -0.01975
C         11.28550         7.91193        -0.03468
C         12.37116         5.55493         0.44939
C         12.53896         8.61726         0.41204
C         10.91932        10.97064        -0.03314
C         11.04744        12.22477         0.56577
C         12.79378         9.92193        -0.00386
C         12.37875        12.82439         0.86230
C         11.07503        15.03781         1.25772
C         11.04532        16.52781         0.87933
C         12.38558        14.29167         1.24145
C         12.25731        17.11925         0.29741
C         10.92689        18.90505        -0.71083
C         12.15153        18.25179        -0.56867
C         13.54322         2.00840        -0.04249
C         13.56302         3.41453         0.52410
C         14.77044         1.36591        -0.26940
C         14.81081         4.22353         0.08917
C         13.57600         6.04218         1.08994
C         13.59638         8.06670         1.18897
C         14.83878         5.58252         0.79184
C         14.93511         8.59004         1.14426
C         13.83119        10.72208         0.57216
C         13.68514        12.12176         0.69011
C         14.98258        10.00201         1.02038
C         14.87631        12.88354         1.13550
C         13.65339        15.08530         1.06484
C         13.56782        16.53821         0.55121
C         14.88939        14.32308         0.82181
C         14.71850        16.88183        -0.39939
C         13.35169        18.80850        -1.16814
C         14.63630        18.31827        -1.00115
C         16.02716         2.00431        -0.04111
C         16.02218         3.40600         0.44560
C         17.25288         1.36270        -0.14755
C         17.30315         4.13572         0.74190
C         16.08714         6.31230         1.02070
C         16.12423         7.77117         1.20687
C         17.28948         5.61349         0.86403
C         17.39316         8.44652         1.10734
C         16.19524        10.70287         1.42042
C         16.17778        12.19832         1.39202
C         17.47542         9.91313         1.33939
C         17.51060        12.94236         1.27940
C         16.08430        14.95453         0.50157
C         16.04317        16.34785         0.14035
C         17.36114        14.26396         0.52207
C         17.24301        16.99167        -0.02501
C         15.71828        18.93344        -1.72020
C         17.06553        18.79284        -1.33070
C         18.49523         2.06475         0.01526
C         18.54560         3.42921         0.38590
C         19.71275         1.39131        -0.31785
C         19.76168         4.16619         0.27188
C         18.62188         6.27352         1.13411
C         18.59966         7.76453         0.90538
C         19.80824         5.57283         0.51398
C         19.83105         8.47210         0.68583
C         18.68896        10.66843         0.95275
C         18.66271        12.06629         0.79136
C         19.85709         9.91527         0.63685
C         19.81240        12.71899         0.27159
C         18.48312        14.89192         0.01662
C         18.47233        16.30427        -0.32206
C         19.69131        14.09116        -0.26849
C         19.54049        16.96928        -0.92773
C         18.27714        18.94209        -1.99850
C         19.49585        18.33668        -1.47362
C         20.90017         2.07620        -0.38820
C         20.94492         3.47932        -0.14096
C         22.14488         4.21470        -0.30938
C         20.99680         6.28751         0.29996
C         21.02670         7.74570         0.43322
C         22.16172         5.57805        -0.11988
C         22.22728         8.46692         0.21777
C         21.06213        10.60716         0.30789
C         21.02511        12.02598         0.08809
C         22.24979         9.84499         0.14360
C         22.21245        12.77706        -0.27766
C         20.90079        14.78344        -0.84673
C         20.85355        16.26099        -1.25132
C         22.18240        14.08249        -0.65092
C         21.99925        17.12767        -0.77542
C         20.70957        18.99960        -1.61849
C         21.91670        18.45284        -1.05479
O          5.03390         5.20203        -2.44920
O         19.97745        14.04719        -1.73213
O         17.23501        18.38433         0.00959
O          5.49571        14.77676         2.61402
O         11.10521        16.07225         2.27936
O          9.20878         3.72631        -2.24453
O         16.46959         3.51126         1.82687
O          2.44286        14.70067         2.15769
O         16.86306        10.23331         2.63941
O         10.75318         5.86029        -1.27715
O         14.48176        16.14141        -1.56410
O         15.36449        12.64937         2.53646
O          5.43163        12.05911         2.41803
O         10.75254         8.38197        -1.29543
O         13.35840         7.03313         2.07456
O         13.85638        16.23784         1.94520
O         12.39409        13.30079         2.30164
O          2.82069         6.46640        -2.29369
O         11.95230        10.56099        -0.89562
O          7.04890         4.74538         0.46084
O         13.58107         3.30290         1.97077
H         14.49930         3.09096         2.25481
O          5.96261        11.15364        -1.03246
H          6.00238        10.34510        -1.58701
O         18.81445         6.10844         2.59475
H         18.09238         6.59722         3.04580
O         17.89082        13.34196         2.62377
H         17.06345        13.35058         3.16153
O          4.94953         9.45660         2.09486
H          4.97630        10.27071         2.65523
O         14.81022         4.38881        -1.34222
H         13.93519         4.73939        -1.61471
O          1.73597        17.32837         2.10553
H          1.78112        16.43002         2.51609
O          9.08345         3.88188         1.32926
H          9.32064         2.97738         1.62093
O         10.06206        19.31188         1.45512
H         10.74784        18.80575         1.94271
O         20.97114        16.25082        -2.70929
H         20.41422        15.50126        -3.02214
H          0.26641         1.48196        -0.81480
H          0.21358         3.93934        -1.11526
H          2.45076         0.28789        -0.64538
H          0.78424         5.67373         0.26868
H          0.45375         8.08897         0.32222
H          0.26147        10.21263        -0.26762
H          0.22929        12.64783         0.13782
H          0.55616        14.47230        -0.63289
H          0.51546        16.90725        -0.63441
H          1.44349        19.13431         0.05202
H          4.85987         0.33615        -0.59053
H          3.59707        20.15027        -0.56406
H          7.30112         0.40123        -0.15029
H          5.99958        20.06621        -0.68822
H          9.80825         0.31223        -0.31501
H          8.40238        20.11391        -0.67127
H         12.27605         0.32083        -0.52648
H         10.87985        19.82980        -1.30556
H         14.77262         0.31724        -0.60566
H         13.22709        19.78140        -1.67324
H         17.28914         0.30817        -0.45979
H         15.48956        19.40990        -2.68779
H         19.67514         0.31834        -0.55523
H         18.34202        19.50430        -2.94287
H         21.82709         1.55675        -0.67117
H         23.05902         3.68810        -0.61901
H         23.10339         6.11524        -0.28937
H         23.17385         7.93046         0.07458
H         23.20385        10.34665        -0.06437
H         23.18942        12.27902        -0.20418
H         23.12204        14.61866        -0.84612
H         22.91515        16.68315        -0.36095
H         20.72677        20.01845        -2.03111
H         22.76221        19.12719        -0.85409
