         276
 CSIRO Nanostructure Databank - Neutral Graphene Oxide Data Set
C        -11.00247         0.81604         0.48938
C         -9.87356         1.47987         1.28068
C         -8.56830         0.81409         0.78766
C         -7.49885         1.49045         0.34570
C         -6.47680         0.78402        -0.54467
C         -5.16364         1.51923        -0.85989
C         -3.94683         0.79893        -1.38793
C         -2.62257         1.63352        -1.51152
C         -1.33903         0.78537        -1.56596
C         -0.00749         1.39934        -1.03072
C          1.19494         0.80283        -1.79950
C          2.60042         1.45676        -1.54001
C          3.58424         0.64492        -0.73046
C          4.62412         1.20195        -0.07589
C          5.99739         0.56251        -0.15156
C          6.93146         0.98608         0.97956
C          8.23842         0.27192         1.13400
C          9.45387         0.99714         1.63222
C         10.77693         0.37189         1.35319
C         -9.72103         2.96138         1.17655
C         -8.85756         3.61650         0.16542
C         -7.44172         2.97986         0.54244
C         -6.30490         3.60530        -0.21932
C         -4.99178         2.83564        -0.10129
C         -3.75668         3.63500        -0.42764
C         -2.48185         2.78662        -0.45809
C         -1.28502         3.63642        -0.93129
C          0.02393         2.92129        -1.05982
C          1.18904         3.61650        -1.08078
C          2.59449         3.01476        -1.30583
C          3.50719         3.46432        -0.17016
C          4.47987         2.57341         0.54715
C          5.85632         3.25687         0.68383
C          6.89372         2.42482         1.38292
C          8.13481         3.10238         1.83574
C          9.31706         2.44466         1.93031
C         -8.75829         5.12770         0.24329
C         -7.58861         5.83769        -0.07521
C         -6.34612         5.07244        -0.40225
C         -5.03792         5.76163        -0.22200
C         -3.77674         4.98983        -0.34662
C         -2.51143         5.76836        -0.07357
C         -1.32722         5.12858        -0.77634
C         -0.06041         5.88908        -0.73281
C          1.18812         5.10487        -0.92170
C          2.38578         5.70222        -0.26636
C          3.41388         4.83725         0.41373
C          4.77232         5.48550         0.21874
C          6.01645         4.73551         0.53704
C          7.28345         5.43848         1.13777
C          7.93429         4.54812         2.23646
C         -7.53698         7.23488        -0.16176
C         -6.32238         7.97605        -0.67268
C         -5.03350         7.24902        -0.30382
C         -3.73920         7.93656        -0.50593
C         -2.57842         7.26447        -0.35848
C         -1.29079         7.99423        -0.06588
C         -0.05290         7.20406        -0.37329
C          1.18203         7.93510         0.00348
C          2.40703         7.12388         0.18405
C          3.72336         7.71998        -0.05073
C          4.80526         6.84803        -0.16121
C          6.38868         7.78001         1.03779
C          6.97903         6.79799         1.75662
C         -6.20050         9.40096        -0.16422
C         -5.03876        10.06369        -0.25674
C         -3.79461         9.44377        -0.86197
C         -2.51424        10.04996        -0.38211
C         -1.23701         9.39858        -0.80136
C          0.03582        10.20320        -0.39819
C          1.32285         9.39171        -0.24311
C          2.55327         9.95693        -0.20772
C          3.88902         9.22167        -0.11697
C          4.73657         9.67169         1.08107
C          5.83973         9.04218         1.54835
C        -10.98477        -0.50030         0.18317
C         -9.82907        -1.36655         0.39762
C         -8.59139        -0.69847         0.98981
C         -7.32423        -1.30415         0.40929
C         -6.25313        -0.62260        -0.04810
C         -5.07213        -1.39157        -0.56237
C         -3.95921        -0.73488        -1.34141
C         -2.67678        -1.57405        -1.66352
C         -1.38127        -0.71198        -1.69816
C         -0.05151        -1.45431        -1.72864
C          1.24428        -0.71744        -1.58298
C          2.41976        -1.40374        -1.52312
C          3.73256        -0.64037        -1.50956
C          4.93087        -1.48181        -1.12832
C          5.95077        -0.92781        -0.41982
C          7.17060        -1.69635        -0.03221
C          8.41763        -0.91421         0.24397
C          9.76249        -1.56744         0.15711
C         10.90199        -0.84490         0.78457
C         -9.84428        -2.71018         0.18670
C         -8.59185        -3.53250         0.21433
C         -7.31582        -2.77796         0.31443
C         -6.01435        -3.40774         0.67100
C         -4.75771        -2.60309         0.31561
C         -3.58428        -3.44053        -0.15661
C         -2.54101        -2.84816        -0.81323
C         -1.35271        -3.74282        -1.21678
C         -0.05342        -2.95594        -1.50067
C          1.23583        -3.60957        -1.31428
C          2.44365        -2.89023        -1.71158
C          3.73272        -3.65869        -1.89113
C          5.01482        -2.90564        -1.60445
C          6.25524        -3.68511        -1.32492
C          7.34620        -3.09255        -0.48994
C          8.69420        -3.73923        -0.55012
C          9.83131        -2.99614        -0.16981
C         -8.64697        -5.02387         0.54991
C         -7.28519        -5.67460         0.80932
C         -6.02836        -4.86953         0.87847
C         -4.76177        -5.64592         0.57565
C         -3.49793        -4.81096         0.38324
C         -2.28841        -5.44060         0.44645
C         -1.08559        -4.80392        -0.13262
C          0.20752        -5.56489        -0.17724
C          1.24751        -5.07141        -1.13823
C          2.45379        -5.89366        -1.47141
C          3.75723        -5.23725        -1.96129
C          4.96645        -5.93135        -1.33786
C          6.22872        -5.17058        -1.17821
C          7.56594        -5.88319        -1.38736
C          8.75465        -5.07915        -0.92168
C         -7.19919        -6.99497         1.07774
C         -5.98616        -7.63115         1.73315
C         -4.67758        -6.84111         1.54862
C         -3.36651        -7.52878         1.50262
C         -2.13249        -6.74632         1.12671
C         -0.84327        -7.50064         1.11507
C          0.44500        -6.90909         0.52814
C          1.30378        -7.91721        -0.24171
C          2.46774        -7.36995        -1.04288
C          3.76588        -8.16875        -1.12833
C          5.09285        -7.45839        -1.54047
C          6.33122        -7.96914        -0.79227
C          7.47649        -7.24566        -0.75412
C         -5.80230        -9.11101         1.44561
C         -4.61614        -9.71834         1.29471
C         -3.34117        -8.96312         1.01242
C         -2.04381        -9.65874         1.35932
C         -0.88004        -8.97836         1.34791
C          0.46784        -9.61795         1.57836
C          1.39822        -9.36538         0.36437
C          2.81433        -9.66587         0.71922
C          3.87442        -9.43026        -0.21735
C          5.21284        -9.95925         0.12400
C          6.33665        -9.27888        -0.15681
O          5.39789        -5.53263        -0.01105
O          1.28565        -7.99425        -1.66985
O         -0.01597        -4.48645         0.81249
O         -1.32661         0.15645        -2.87240
O          6.38793         3.81431        -0.56752
O         -5.94834        -3.96104         2.03267
O          9.19338        -0.69833        -0.96228
O         -2.24885         2.23319         0.81358
O          1.65449         7.54015         1.36376
O          2.25978         5.73550        -1.70870
O          3.34707         1.29014        -2.83518
O          6.33308         1.37148         2.24773
O          3.03042        -3.18271        -3.06922
O         -7.79623        -3.25473        -0.99945
O          3.94439        -0.08351        -2.86889
O         -3.88020        -6.95334         2.76096
O          6.90997        -2.80525         0.88889
O         -8.57954        -0.94808         2.36783
O         -1.21396        -6.70628         2.29445
O         -4.90406         1.44833        -2.28167
O         -4.92477        -6.33406        -0.64353
O          1.38585        -5.71324        -2.45321
O         -1.61416         4.50831        -2.05805
O          6.07423         7.46473        -0.31714
O         -6.52759         4.15758        -1.54365
O         -0.01216        -2.35210        -2.85711
O         -1.74177        -4.36334        -2.39860
O          3.55168        -9.47139        -1.67282
O         -5.08255         6.58405         1.01290
O          8.64808         0.10697         2.51251
O          6.05277        -3.11490        -2.63851
O         -5.07203        -1.40971        -2.00871
O          3.86473        -5.55720        -3.36208
H          3.17713        -5.02277        -3.82897
O          1.29633        -6.58866         1.66787
H          0.76239        -5.96471         2.21946
O          0.08100         1.00754         0.35197
H         -0.72534         1.41935         0.80151
O          0.90526         1.03480        -3.17568
H          1.72004         0.87056        -3.70223
O          8.22634         5.60549         0.07542
H          7.99691         4.96513        -0.63592
O         -7.23030         3.28300         1.92472
H         -6.30787         2.99491         2.14990
O         -6.32343        -7.58248         3.14844
H         -5.46954        -7.53707         3.63968
O        -10.03809         1.15911         2.65583
H         -9.58980         0.26418         2.81861
O          1.08038        -9.11664         2.76610
H          1.10510        -8.12977         2.70930
O          4.61400         9.57572        -1.31721
H          5.43831         9.03344        -1.32230
O         -9.17533         3.22549        -1.16832
H         -8.43759         3.51291        -1.75721
O         -7.19241         0.63076        -1.78856
H         -6.51546         0.47749        -2.49320
O         -2.85905        -2.05273        -2.99987
H         -2.44830        -2.96375        -3.08424
O         -1.28188         8.30106         1.34140
H         -1.27966         7.43789         1.82052
O          0.18143        11.19929        -1.41250
H          1.07804        11.58942        -1.36047
O          3.08407         3.60055        -2.53246
H          4.05235         3.46218        -2.58570
O         -2.26269         5.67645         1.36000
H         -3.12263         5.85039         1.80765
O          0.99516       -10.29282        -0.65905
H          1.32042        -9.94602        -1.52447
O         -6.40665         8.02152        -2.12179
H         -5.65609         8.57911        -2.44539
O         -3.31103        -8.75414        -0.44027
H         -3.97185        -8.04347        -0.66972
O         -2.68752         2.30103        -2.77178
H         -2.53030         1.63264        -3.47579
O         -1.20137         9.13119        -2.20691
H         -0.67951         9.86276        -2.61301
O          3.03544         4.84022         1.81596
H          3.29972         3.97263         2.21212
O          5.34736        -7.71787        -2.93076
H          4.66929        -7.23275        -3.46376
O          3.94892         2.35759         1.89368
H          4.61833         1.81703         2.38681
O          6.60363         1.14717        -1.34032
H          6.07224         0.88299        -2.12426
O         -3.91953         9.49225        -2.30316
H         -3.02460         9.27089        -2.66813
O         -4.29905        -1.98919         1.55281
H         -4.57062        -2.58557         2.29032
O         -9.47461        -5.21496         1.70373
H         -9.00462        -4.86206         2.48770
O          7.71616        -6.07799        -2.82106
H          7.02941        -6.72982        -3.10999
O          7.03842         4.55971         3.35585
H          7.37409         3.93902         4.03502
O         -4.81007         2.46148         1.28972
H         -3.81652         2.27788         1.40346
H         11.90021        -1.29762         0.68410
H         11.67265         0.89631         1.71990
H         10.22239         2.99729         2.22909
H          8.92225         5.00231         2.52676
H          7.21245         6.95371         2.81910
H          6.33616         9.46021         2.43943
H          4.41859        10.59472         1.59237
H          2.64799        11.04713        -0.35060
H         -0.17304        10.69910         0.59570
H         -2.52424        10.47834         0.63545
H         -4.97099        11.10607         0.09041
H         -7.08937         9.89596         0.25673
H         -8.44720         7.81660         0.05292
H         -9.68429         5.69714         0.42066
H         -9.77361         3.48747         2.14653
H        -11.90209         1.41377         0.28162
H        -11.86835        -0.94970        -0.29864
H        -10.77046        -3.20790        -0.14370
H         -9.15354        -5.55666        -0.29643
H         -8.11337        -7.60914         1.05559
H         -6.70980        -9.72715         1.54976
H         -4.57655       -10.81428         1.18929
H         -2.04592       -10.74532         1.53953
H          0.35393       -10.72208         1.69693
H          3.06435       -10.02474         1.72902
H          5.25655       -10.92392         0.64885
H          7.31422        -9.68142         0.14695
H          8.36678        -7.66930        -0.26414
H          9.73677        -5.57308        -0.97587
H         10.81029        -3.49666        -0.13352
