         345
 CSIRO Nanostructure Databank - Neutral Graphene Oxide Data Set
C          2.00886         2.17234         2.08685
C          1.82562         3.51696         1.75262
C          3.00748         1.42005         1.46459
C          2.70262         4.14753         0.85921
C          1.35259         6.30297         0.90248
C          1.48997         7.56630         1.31640
C          2.44049         5.51175         0.22252
C          2.77185         8.35006         1.21887
C          1.36297        10.47420         0.93736
C          1.28842        11.85738         0.84883
C          2.59491         9.80582         0.80903
C          2.44874        12.63712         0.65715
C          1.29374        14.81968         1.16370
C          1.32382        16.21924         1.42167
C          2.42804        14.07900         0.86808
C          2.49945        16.95283         1.40918
C          2.57536        18.37570         1.61955
C          3.89357         2.03944         0.57281
C          3.78783         3.42007         0.33734
C          4.85049         1.25495        -0.29373
C          4.75465         4.09213        -0.62689
C          3.74162         6.28128         0.10654
C          3.81978         7.66326         0.37644
C          4.86023         5.57898        -0.35987
C          4.96116         8.38923        -0.01299
C          3.73636        10.55126         0.46806
C          3.67830        11.96205         0.39845
C          5.08115         9.87618         0.27080
C          4.89307        12.72372         0.10003
C          3.73728        14.74812         0.92906
C          3.77070        16.24150         1.21581
C          4.89431        14.09431         0.29617
C          4.96123        17.02808         0.89128
C          3.76940        19.04468         1.60237
C          5.00581        18.38889         1.21744
C          6.15225         2.00588        -0.45049
C          6.10562         3.40908        -0.61714
C          7.36831         1.33013        -0.43430
C          7.31570         4.14201        -0.75482
C          6.06766         6.27797        -0.61113
C          6.06012         7.69705        -0.53760
C          7.30022         5.57302        -0.85051
C          7.23363         8.42288        -1.05092
C          5.86636        10.63300        -0.85620
C          6.06923        12.07761        -0.43015
C          7.16589         9.90444        -1.24628
C          7.26014        12.78919        -0.59285
C          6.06019        14.88523        -0.09762
C          6.10122        16.39534         0.23527
C          7.33214        14.19342        -0.31803
C          7.40978        17.02981         0.33859
C          6.24716        19.07267         1.13080
C          7.44149        18.39962         0.78452
C          8.59961         2.02925        -0.55922
C          8.56793         3.44981        -0.72423
C          9.83680         1.35045        -0.47391
C          9.79740         4.17417        -0.79611
C          8.52567         6.30123        -1.03616
C          8.51194         7.70503        -1.10727
C          9.78246         5.58414        -1.01585
C          9.70138         8.47768        -1.48136
C          8.45541        10.67007        -1.39906
C          8.48338        12.15561        -1.14862
C          9.71854         9.94139        -1.38305
C          9.79259        12.84559        -0.97463
C          8.54604        14.92010        -0.35867
C          8.57547        16.32602        -0.01874
C          9.78867        14.23516        -0.64318
C          9.83841        17.02435         0.00251
C          8.69099        19.06444         0.82234
C          9.87771        18.41640         0.44352
C         11.05750         2.05909        -0.47453
C         11.03418         3.48859        -0.62979
C         12.30390         1.40618        -0.30697
C         12.24981         4.22671        -0.53546
C         11.01135         6.29000        -1.06550
C         11.02509         7.69995        -1.52404
C         12.20979         5.63464        -0.72931
C         12.34188         8.47457        -1.58998
C         10.96233        10.71785        -1.75648
C         10.98839        12.16242        -1.24352
C         12.19571         9.96804        -1.27703
C         12.23324        12.87347        -1.19513
C         11.01270        14.96417        -0.68878
C         11.00709        16.37510        -0.38865
C         12.21827        14.27169        -1.01220
C         12.26130        17.16067        -0.45529
C         11.10804        19.10088         0.55884
C         12.33324        18.48946         0.21204
C         13.50412         2.13422        -0.17153
C         13.48192         3.56304        -0.22820
C         14.75736         1.46919        -0.02720
C         14.69808         4.30396         0.00187
C         13.41996         6.41135        -0.43398
C         13.43946         7.89496        -0.70842
C         14.66561         5.70021        -0.13496
C         14.74065         8.60680        -0.84756
C         13.48702        10.70999        -1.15206
C         13.52469        12.18182        -1.32019
C         14.74180         9.93206        -1.22377
C         14.73739        12.82694        -1.38036
C         13.47061        15.02517        -1.24515
C         13.52178        16.46752        -0.84024
C         14.77835        14.30522        -1.43478
C         14.82424        16.98569        -0.30868
C         13.55082        19.14549         0.30665
C         14.82876        18.43468         0.16813
C         15.95320         2.14062         0.25147
C         15.92302         3.59551         0.37783
C         17.18186         1.37210         0.16664
C         17.07973         4.35625         0.65111
C         15.86175         6.53242         0.05109
C         15.95972         7.88189        -0.57957
C         17.11626         5.81472         0.43872
C         17.18402         8.48174        -0.73028
C         15.99877        10.61145        -1.56189
C         16.02450        12.12273        -1.79319
C         17.26605         9.86094        -1.26831
C         17.32639        12.82453        -1.40756
C         16.06078        15.01605        -1.16471
C         16.08913        16.32933        -0.74479
C         17.34301        14.33175        -1.61432
C         17.32635        17.05950        -0.54110
C         16.09814        19.13313         0.09172
C         17.30347        18.45113        -0.14549
C         18.36603         1.73252         0.79478
C         18.29549         3.82523         1.15328
C         19.72183         1.39882         0.52826
C         19.56589         4.42658         1.00701
C         18.43196         6.44222         0.19390
C         18.43092         7.61008        -0.75667
C         19.58821         5.81207         0.56585
C         19.74876         8.35772        -0.79655
C         18.44909        10.67801        -0.78414
C         18.55524        12.13211        -1.31465
C         19.73127         9.87579        -0.96103
C         19.82340        12.77502        -1.36877
C         18.58636        14.89919        -0.89561
C         18.57096        16.40891        -0.69663
C         19.88636        14.32325        -1.53195
C         19.75439        17.07728        -0.33660
C         18.53205        19.15007         0.01175
C         19.76404        18.48262        -0.03986
C         20.82785         2.21998         0.85125
C         20.78419         3.67078         1.05970
C         22.11206         1.58385         0.71380
C         22.02789         4.39983         1.02312
C         20.85573         6.61309         0.71851
C         20.95302         7.73054        -0.27639
C         22.11744         5.77859         0.79478
C         22.24218         8.37792        -0.39557
C         20.93165        10.66756        -0.56200
C         21.02882        11.84522        -1.59712
C         22.22171         9.89127        -0.59041
C         22.40554        12.45941        -1.45813
C         21.10391        15.01645        -0.91738
C         21.01152        16.32140        -0.21149
C         22.35277        14.61884        -1.25829
C         22.29855        17.11419        -0.00421
C         20.99344        19.19883         0.17075
C         22.24599        18.58695         0.12100
C         23.32194         2.21543         0.95685
C         23.28401         3.65563         1.29913
C         24.57282         1.54938         0.84087
C         24.57157         4.38291         1.48618
C         23.37302         6.47365         0.72660
C         23.44913         7.76461         0.20463
C         24.64827         5.90319         1.35572
C         24.69818         8.49324         0.17830
C         23.38759        10.68877        -0.11766
C         23.43554        12.06735        -0.66034
C         24.67411         9.97175         0.11403
C         24.60441        12.90059        -0.13188
C         23.60692        15.13489        -0.75716
C         23.60106        16.53418        -0.38890
C         24.73023        14.34293        -0.62534
C         24.76601        17.23487        -0.24921
C         23.47916        19.28586         0.22447
C         24.73421        18.63819         0.11425
C         25.81213         2.17246         1.04562
C         25.86116         3.60181         1.45688
C         27.01977         1.48983         0.75378
C         27.17355         4.33130         1.36854
C         25.87775         6.34563         0.53632
C         25.91440         7.84691         0.36895
C         27.19684         5.76384         1.00224
C         27.16481         8.53540         0.26907
C         25.92287        10.74620        -0.02865
C         25.91095        12.10677        -0.11348
C         27.19893         9.96397        -0.23460
C         27.13490        12.85240         0.38915
C         26.03484        15.03935        -0.54582
C         26.05774        16.57732        -0.67154
C         27.24795        14.28676        -0.10861
C         27.28057        17.21250        -0.03387
C         25.96117        19.29891         0.34914
C         27.21034        18.62233         0.34497
C         28.28555         2.10189         0.76566
C         28.41531         3.51828         1.15449
C         29.46107         1.42015         0.36418
C         29.69228         4.25645         0.81104
C         28.38950         6.42608         0.71325
C         28.37521         7.84937         0.37868
C         29.64752         5.72033         0.62612
C         29.63783         8.55154         0.22712
C         28.44672        10.72676         0.14530
C         28.44499        12.10745         0.22924
C         29.67196         9.97983         0.18446
C         29.69266        12.85060         0.27059
C         28.45015        15.04010         0.43017
C         28.45717        16.51363         0.05759
C         29.72070        14.25461         0.22017
C         29.70071        17.24446         0.37413
C         28.33499        19.22354         0.94677
C         29.57439        18.54786         1.05426
C         30.65938         2.08672         0.09802
C         30.78386         3.48664         0.19415
C         31.92460         4.20842        -0.23632
C         30.82312         6.36829         0.22242
C         30.85236         7.82410         0.18475
C         31.96508         5.58874        -0.15865
C         32.08044         8.53640         0.14779
C         30.91575        10.68176         0.24592
C         30.92743        12.10877         0.30558
C         32.11664         9.91273         0.21082
C         32.15592        12.84335         0.49686
C         31.01986        14.98772        -0.04631
C         31.00678        16.46230         0.44105
C         32.20995        14.19466         0.41808
C         31.98640        16.99138         1.39401
C         30.69796        19.06157         1.70469
C         31.84842        18.25553         1.91648
O         21.63936        16.39171         1.11125
O         12.64708        10.33639         0.03657
O         22.52328        13.61471        -2.22510
O         30.71488        17.34184        -0.70033
O          6.94384         9.05500        -2.41261
O         23.79205         3.97724         2.66322
O         18.22207         2.64033         1.87398
O         14.03016        14.84140        -2.59430
O         14.83110        17.24588         1.10967
O         18.23968        10.86883         0.59649
O          8.34415        11.65482        -2.53686
O         29.40768         3.78821         2.18837
O          2.03261         5.23496        -1.12008
O         16.33331         6.55987         1.45710
O         27.01240        14.44450        -1.52959
O         12.84347        17.30090        -1.82522
O         23.81866        10.49863         1.25499
O         22.49936         9.05486        -1.70676
O          5.75635        15.90571        -1.11629
O          4.07249        15.24683         2.28688
O         26.60329         3.94269         2.67577
O         10.28602         7.91422        -2.74196
O         16.78937         9.96086        -2.64614
O         13.07905         7.47780         0.61375
O         19.89084         9.05312        -2.11507
O         25.67453         5.75430        -0.79373
H         26.26233         6.22077        -1.42581
O          3.33775         8.41196         2.57032
H          4.21775         8.84853         2.49943
O         26.90161        12.92100         1.83952
H         25.92744        13.10456         1.95949
O         18.50793        14.36293         0.44703
H         19.26236        14.70424         0.97233
O         24.27849        13.12093         1.29697
H         23.96733        12.24305         1.64888
O         16.01082        12.30563        -3.26161
H         16.46008        11.50806        -3.63761
O         18.32509         6.94473        -2.06512
H         18.59943         7.61175        -2.73794
O         17.39104        14.60717        -3.04693
H         16.72996        13.99462        -3.46599
O         20.91927        11.29999        -2.92358
H         21.08668        12.03458        -3.55222
O          5.00211        10.66742        -2.00635
H          5.37567        10.04370        -2.67318
O          4.18075         3.92481        -1.95980
H          3.27711         4.38356        -1.89570
O          5.82708         9.98174         1.51989
H          5.73545        10.90127         1.85062
O         20.73364         7.26137         2.03689
H         20.65615         6.55639         2.71472
O         19.98822        14.56869        -2.94646
H         19.07881        14.51725        -3.34006
O         28.33160        15.12860         1.89224
H         27.92874        14.27532         2.21127
O         12.83072         8.36429        -2.94175
H         12.10715         8.67414        -3.53494
O         24.76598         6.46406         2.67079
H         24.34713         5.83156         3.29740
O         26.18910        16.87322        -2.09050
H         26.80363        16.19925        -2.46247
O         27.28303         9.81075        -1.70130
H         27.42058        10.70191        -2.08926
O         20.79945        11.21133         0.74685
H         19.81092        11.23591         0.97343
O         11.04210        10.77168        -3.21065
H         10.17164        11.11778        -3.52062
O          4.25340         1.10048        -1.59417
H          4.08852         2.01247        -1.94742
O         31.12525        15.01241        -1.50734
H         30.87761        15.93128        -1.78389
H          1.32213         1.68874         2.79594
H          0.98236         4.07339         2.18544
H          3.09111         0.34066         1.65737
H          0.37334         5.80943         0.99801
H          0.64172         8.05621         1.81882
H          0.44612         9.90846         1.14827
H          0.31748        12.34752         1.00206
H          0.31063        14.32831         1.17392
H          0.37090        16.73433         1.61221
H          1.64568        18.91990         1.84280
H          5.03369         0.23271         0.12119
H          3.79870        20.12249         1.81772
H          7.38406         0.23893        -0.29170
H          6.29476        20.13927         1.39460
H          9.84423         0.25767        -0.34904
H          8.73430        20.11030         1.16019
H         12.33054         0.30864        -0.24002
H         11.11303        20.12303         0.96524
H         14.77689         0.37403        -0.12894
H         13.57684        20.20103         0.61641
H         17.17259         0.49243        -0.49455
H         16.11432        20.22289         0.23993
H         19.93761         0.43925         0.03309
H         18.50435        20.21942         0.26761
H         22.12106         0.51601         0.44581
H         20.93187        20.28591         0.33124
H         24.56525         0.49112         0.53637
H         23.45696        20.37174         0.40332
H         26.95352         0.43485         0.44499
H         25.94214        20.35285         0.66649
H         29.40201         0.33773         0.17768
H         28.23413        20.22867         1.38385
H         31.51808         1.50765        -0.27259
H         32.79110         3.65779        -0.63054
H         32.87564         6.10535        -0.49078
H         33.02914         7.98373         0.12045
H         33.09240        10.41579         0.21538
H         33.07465        12.28931         0.73560
H         33.17724        14.70557         0.52848
H         32.82196        16.35792         1.72367
H         30.65842        20.06681         2.14811
H         32.63637        18.64311         2.57854
