         210
 CSIRO Nanostructure Databank - Neutral Graphene Oxide Data Set
C         30.35269        31.76011        -0.24992
C         30.50417        32.99404        -0.40012
C         30.51873        36.10722        -0.86538
C         30.58090        37.35016        -1.06730
C         30.67904        40.47299        -1.46866
C         30.59731        41.67882        -1.23281
C         32.72847        29.03691         0.48486
C         31.60591        29.55441         0.34643
C         32.79749        31.71497         0.19632
C         31.41872        31.03486         0.57032
C         32.84450        33.12790        -0.16351
C         31.62003        33.86098        -0.45623
C         32.87245        35.99470        -0.73054
C         31.64110        35.25618        -0.69461
C         32.91537        37.39881        -0.85683
C         31.72781        38.15250        -1.10665
C         32.86619        40.26440        -0.53144
C         31.87456        39.57758        -1.51835
C         32.98569        41.76246        -0.68206
C         31.77359        42.61107        -1.22097
C         32.83422        44.34901        -0.02622
C         31.72781        43.87203        -0.35804
C         35.43237        27.42594         0.51613
C         35.28521        28.84264         0.45989
C         34.05855        29.55199         0.42472
C         35.28993        31.69563         0.26528
C         33.99163        30.97848         0.26941
C         35.30769        33.05534        -0.34028
C         34.05474        33.80940        -0.34602
C         35.40244        35.94768        -0.54625
C         34.13506        35.20025        -0.94141
C         35.39227        37.37092        -0.45568
C         34.18303        38.12249        -0.65037
C         35.38038        40.20898        -0.10643
C         34.19035        39.51597        -0.51391
C         35.34796        41.63990         0.09405
C         34.13158        42.37563        -0.15312
C         35.29709        44.46765         0.54108
C         34.12876        43.80068         0.16218
C         35.42961        45.85903         0.82425
C         37.81817        27.31684         0.42194
C         36.50468        26.78624         0.49563
C         37.80099        28.75389         0.34498
C         36.56797        29.47806         0.37185
C         37.85041        31.65213        -0.02681
C         36.59675        30.95411         0.35202
C         37.88547        33.02621        -0.16330
C         36.63137        33.77106        -0.44956
C         37.84289        35.93043        -0.16091
C         36.60489        35.24524        -0.38964
C         37.83053        37.33952         0.00279
C         36.59880        38.06672        -0.10323
C         37.73467        40.12642         0.82166
C         36.56242        39.46941         0.13004
C         37.74500        41.62945         0.67782
C         36.55692        42.33969         0.45732
C         37.77509        44.49491         0.90982
C         36.55706        43.78006         0.63589
C         37.79377        45.92005         1.12583
C         36.48681        46.47191         1.07739
C         40.26102        24.52670         0.42956
C         39.20832        25.20997         0.42842
C         40.30645        27.29378         0.42468
C         39.03752        26.61014         0.41574
C         40.29875        28.72986         0.29774
C         39.06893        29.42156         0.20516
C         40.42160        31.60712        -0.15660
C         39.07258        30.84619        -0.15712
C         40.38141        33.06934        -0.01686
C         39.12614        33.77679        -0.15107
C         40.37739        35.92888        -0.21583
C         39.07303        35.18233        -0.12848
C         40.30304        37.37952         0.18527
C         39.07614        38.06065         0.22596
C         40.26721        40.16226         0.60101
C         39.05972        39.46203         0.49999
C         40.29436        41.58797         0.99547
C         38.97216        42.34221         1.04330
C         40.26421        44.49480         1.06862
C         39.02085        43.81009         0.98225
C         40.27623        45.92561         1.25014
C         39.00940        46.59981         1.34336
C         40.23261        48.64897         1.72463
C         39.18035        47.98126         1.59606
C         42.84924        24.53235         0.51556
C         41.54743        25.10839         0.47403
C         42.77197        27.31305         0.67007
C         41.54101        26.56180         0.50443
C         42.75647        28.72319         0.67056
C         41.55962        29.45725         0.36799
C         42.82323        31.61607         0.52569
C         41.61424        30.86810         0.27908
C         42.80659        33.05139         0.52179
C         41.57006        33.73546         0.31365
C         42.78804        35.95415         0.70868
C         41.49889        35.19619         0.49602
C         42.78040        37.39709         0.42386
C         41.53048        38.08199         0.34190
C         42.74656        40.24017         0.40841
C         41.51568        39.50071         0.44782
C         42.70703        41.67211         0.43882
C         41.52902        42.36397         0.75936
C         42.74850        44.52442         0.82730
C         41.50563        43.78774         0.89678
C         42.75092        45.93978         1.09321
C         41.51797        46.65023         1.33542
C         42.81743        48.66718         1.56817
C         41.52480        48.08916         1.57674
C         43.88532        25.22220         0.59846
C         45.26024        27.29689         0.88187
C         44.06089        26.62286         0.76328
C         45.30932        28.73915         1.21236
C         43.96473        29.48565         1.04793
C         45.26917        31.63882         0.93280
C         44.03056        30.93500         0.81389
C         45.26093        33.05240         0.87318
C         44.03835        33.77796         0.73563
C         45.25971        35.97859         0.71496
C         44.05002        35.21123         0.74516
C         45.22635        37.39171         0.56068
C         43.99528        38.11196         0.40198
C         45.22731        40.28447         0.21663
C         43.98190        39.54548         0.31770
C         45.21219        41.69312         0.10610
C         43.90896        42.44179        -0.03570
C         45.19058        44.54818         0.39973
C         43.95301        43.85693         0.49469
C         45.19479        45.96173         0.65920
C         44.00796        46.62970         1.03007
C         43.85070        48.00671         1.30996
C         47.68080        27.38000         0.68568
C         46.58825        26.80188         0.75211
C         47.95876        28.75009         1.22575
C         46.57923        29.51506         1.12102
C         47.80594        31.67154         1.04471
C         46.53142        30.88947         1.05881
C         47.77496        33.09819         0.70792
C         46.53196        33.83255         1.15514
C         47.70587        35.92661         0.39450
C         46.51380        35.27597         0.71177
C         47.78905        37.39653         0.46261
C         46.47105        38.16572         0.60837
C         47.69173        40.26969        -0.00456
C         46.47035        39.59637         0.24724
C         47.66250        41.69196        -0.16023
C         46.42489        42.40255        -0.01321
C         47.62063        44.54275        -0.20298
C         46.40523        43.84917         0.03198
C         47.49396        45.94461         0.00496
C         46.47098        46.53171         0.41910
C         49.81848        29.15056        -0.57227
C         49.00807        29.49942         0.44124
C         50.24360        31.70651         0.20848
C         49.12515        30.94298         0.79653
C         50.09220        33.01886        -0.20800
C         48.87521        33.74579         0.15974
C         49.99379        35.87349        -0.50658
C         48.87009        35.18667         0.00014
C         50.06481        37.32171        -0.45697
C         48.97803        38.10473        -0.05276
C         50.10301        40.26716        -0.57267
C         48.95431        39.55272        -0.16158
C         50.05947        41.68558        -0.83775
C         48.85490        42.40313        -0.51856
C         50.01337        44.36601        -1.03644
C         48.79756        43.83983        -0.58482
C         50.59301        29.44963        -1.59452
C         51.93637        31.58393        -2.11036
C         51.49410        30.47929        -1.31651
C         51.88939        32.78886        -1.77345
C         51.07319        33.70661        -1.05099
C         52.02846        35.96393        -1.70454
C         51.05560        35.08840        -1.12692
C         52.30224        37.14732        -1.44984
C         51.36052        38.00800        -0.71756
C         52.39548        40.31282        -1.42953
C         51.39110        39.51907        -0.72085
C         52.27674        41.51439        -1.71193
C         51.21140        42.39960        -1.37446
C         51.06581        43.79328        -1.43498
O         35.99501        33.16004        -1.65720
O         51.84556        38.75813         0.41435
O         35.98581        31.59982         1.55111
O         44.49658        29.08803         2.36420
O         47.33029        37.88961         1.76695
O         48.73685        31.30362         2.15317
O         51.42913        30.97754         0.06557
O         39.81540        31.11125        -1.39354
O         41.83206        35.63581         1.82710
O         39.62839        41.81470         2.28657
O         32.43764        39.62790        -2.82621
H         31.88980        39.09034        -3.43458
O         43.72401        42.59074        -1.50284
H         42.91096        43.12165        -1.64297
O         46.60934        33.88994         2.62257
H         47.39276        34.42831         2.86472
O         32.05832        43.00584        -2.53571
H         31.28453        43.47417        -2.90963
O         48.33206        28.65492         2.58505
H         48.54915        29.56396         2.90307
O         34.20312        35.02188        -2.39914
H         34.91027        34.34615        -2.56075
O         37.53412        39.89727         2.26733
H         38.25297        40.39838         2.72438
O         40.77436        35.90985        -1.63235
H         40.01896        36.23932        -2.16386
O         31.16468        31.28486         1.92488
H         30.33730        30.83480         2.19160
O         32.26398        40.03609         0.77889
H         32.80113        40.50196         1.45403
