         276
 CSIRO Nanostructure Databank - Neutral Graphene Oxide Data Set
C        -11.02371         0.65852         0.87037
C         -9.80611         1.43293         1.33130
C         -8.49934         0.65273         1.11576
C         -7.26105         1.40505         0.75713
C         -6.27434         0.73332        -0.18128
C         -4.92983         1.45453        -0.21933
C         -3.76574         0.76066        -0.99767
C         -2.42236         1.50454        -0.66005
C         -1.17468         0.73217        -1.12705
C          0.00920         1.53429        -1.71843
C          1.28604         0.73385        -1.41822
C          2.56875         1.46505        -1.14016
C          3.89013         0.81501        -1.44885
C          5.15644         1.48725        -0.99644
C          6.41095         0.69957        -0.73310
C          7.48893         1.33439         0.08974
C          8.53095         0.57204         0.53409
C          9.77778         1.20045         1.18714
C         11.02326         0.46823         0.72205
C         -9.78802         2.78293         0.60888
C         -8.67411         3.50019         0.37576
C         -7.31546         2.95521         0.81730
C         -6.23848         3.63116        -0.08093
C         -5.08705         2.90011        -0.70086
C         -3.82272         3.64465        -1.10792
C         -2.47535         2.91360        -1.28867
C         -1.24916         3.71539        -0.85360
C          0.02961         3.02478        -1.25304
C          1.31647         3.69098        -0.86537
C          2.56991         2.92157        -0.95171
C          3.78816         3.58106        -0.47813
C          5.05940         2.81243        -0.30435
C          6.32583         3.51545         0.05308
C          7.43727         2.77555         0.31786
C          8.55469         3.40965         1.17627
C          9.81336         2.66749         0.88670
C         -8.74598         4.89333        -0.23730
C         -7.53461         5.78387         0.02242
C         -6.17982         5.12844         0.19862
C         -5.12376         5.81796        -0.64091
C         -3.80659         5.11290        -0.85036
C         -2.61370         5.65882        -0.07777
C         -1.27246         5.01935        -0.46289
C          0.01457         5.83862        -0.32211
C          1.25732         4.90865         0.08105
C          2.59365         5.66629         0.01703
C          3.82466         5.09295        -0.65452
C          5.13433         5.74094        -0.11512
C          6.16443         4.90566         0.64118
C          7.48250         5.63911         0.82959
C          8.61543         4.90961         1.00839
C         -7.59945         7.12956        -0.01857
C         -6.40807         8.06413        -0.19124
C         -5.13417         7.31219        -0.62170
C         -3.83684         7.97792        -0.46091
C         -2.68447         7.20113         0.02442
C         -1.42971         7.94717         0.35542
C         -0.17988         7.15268         0.47082
C          0.84346         7.89189         0.97196
C          2.77479         6.85545         0.62017
C          3.78392         7.89208         0.16405
C          5.14703         7.20442         0.20914
C          6.24788         7.77088         1.02443
C          7.41437         7.05740         1.14365
C         -6.06797         8.98098         0.96183
C         -4.89567         9.63129         0.97229
C         -3.88325         9.46837        -0.17660
C         -2.56165        10.10714         0.17944
C         -1.40538         9.44481         0.37679
C         -0.18877        10.14995         0.98881
C          1.07815         9.35434         0.62790
C          2.42725         9.80499         1.17682
C          3.62891         9.17726         0.97383
C          4.83877         9.72673         1.56497
C          6.04574         9.08974         1.57981
C        -11.04080        -0.62992         0.49890
C         -9.84246        -1.50763         0.58712
C         -8.53862        -0.83424         0.84485
C         -7.18988        -1.50482         0.58467
C         -6.31793        -0.74332        -0.41649
C         -5.10879        -1.41836        -1.13616
C         -3.73802        -0.78022        -0.71534
C         -2.55137        -1.46286        -1.43468
C         -1.21368        -0.75308        -1.35591
C         -0.01594        -1.44306        -1.99607
C          1.28889        -0.68189        -1.99284
C          2.62155        -1.42370        -2.03133
C          3.90783        -0.66117        -1.75455
C          5.10087        -1.41357        -1.37245
C          6.32616        -0.78835        -0.82388
C          7.20262        -1.63134         0.10030
C          8.49068        -0.91405         0.51373
C          9.79302        -1.66246         0.50234
C         11.02883        -0.84416         0.43877
C         -9.89247        -2.87222        -0.07124
C         -8.64322        -3.69950         0.17219
C         -7.32748        -3.01211         0.30463
C         -6.16437        -3.72243        -0.31436
C         -5.07532        -2.97239        -1.02932
C         -3.84266        -3.73833        -1.44973
C         -2.57490        -2.94892        -1.72530
C         -1.27570        -3.73807        -1.78837
C          0.00704        -2.96520        -1.95322
C          1.28878        -3.53376        -1.37556
C          2.55256        -2.98230        -2.04691
C          3.93323        -3.70530        -1.78243
C          5.19977        -2.82760        -1.67835
C          6.50168        -3.44518        -1.37370
C          7.46742        -2.98542        -0.54190
C          8.69242        -3.76594        -0.28162
C          9.81965        -3.09247         0.12718
C         -8.66119        -5.05637         0.10037
C         -7.40704        -5.82535         0.13135
C         -6.28337        -5.19820        -0.68519
C         -4.89887        -5.78271        -0.42149
C         -3.74316        -5.28043        -1.31699
C         -2.37761        -5.77715        -0.83277
C         -1.23788        -5.11750        -1.18064
C          0.12185        -5.83132        -1.24911
C          1.29288        -4.91473        -0.82209
C          2.63556        -5.52259        -0.45970
C          3.96115        -5.03684        -1.02334
C          5.15877        -5.95735        -0.84166
C          6.44231        -5.61976        -1.16377
C          7.63052        -6.08553        -0.46465
C          8.69510        -5.22592        -0.24375
C         -7.29501        -7.01272         0.76844
C         -5.96612        -7.63240         1.14396
C         -4.79030        -7.05261         0.34945
C         -3.62242        -7.92142        -0.00287
C         -2.36712        -7.22145        -0.41987
C         -1.06998        -7.92019        -0.06924
C          0.16172        -7.21542        -0.57744
C          1.47688        -7.65717        -0.07948
C          2.57842        -6.89956         0.07791
C          3.80927        -7.44012         0.72949
C          5.00907        -7.34182        -0.19569
C          6.27442        -7.88781         0.45106
C          7.51259        -7.35214         0.22373
C         -5.94474        -9.13889         1.19853
C         -4.81659        -9.85229         1.11184
C         -3.49693        -9.32940         0.59710
C         -2.34427        -9.31588         1.56839
C         -1.12003        -8.80605         1.17857
C         -0.02319        -9.03042         2.08214
C          1.33614        -9.00332         1.69579
C          2.48335        -8.89639         2.45349
C          3.76847        -8.47946         1.81338
C          4.96373        -9.34567         1.94660
C          6.12519        -9.04704         1.31855
O         -2.37747         7.56308         1.45809
O         -4.42793        -5.75276         0.95505
O         -0.44491        -8.33626        -1.31927
O         -6.29359         3.21117        -1.46936
O          1.53034        -9.00160         0.29476
O         -0.81535        -0.21380        -0.06025
O         -7.44522         0.88752         2.10140
O          3.48184        -4.65767         0.33948
O          1.89111         7.23698         1.62599
O         -4.92044        -3.48136        -2.39245
O          0.74195         3.87237        -2.22637
O         -6.30439        -3.68283         1.12738
O          4.71801        -3.44670        -2.95097
O         -3.21971        -7.94939        -1.39543
O         -7.13633         3.33988         2.15079
O         -0.59088        -3.63710        -3.07945
O          1.08239        -3.75265         0.04915
O          4.71721         1.57806        -2.38374
O         -5.48668         6.53001        -1.84280
O         -6.96244         0.18677        -1.34308
O          5.65803         6.69259        -1.07930
O          9.01754        -1.46735         1.78141
O          7.00882         0.00169        -1.87475
O          1.78263         0.76411        -0.06119
O          3.43673        -0.95105        -3.13733
O         -2.76425        -1.96271        -2.77458
O         -9.24436        -1.54958         1.92348
O          4.06435        -7.03922         2.09693
O         -3.83097         4.62333        -2.21493
O          6.71672        -4.61352        -2.09916
O          0.51475        -0.86686        -3.20863
O          4.14336         2.94116         0.82930
O         -2.20854         1.72114         0.74298
H         -1.81421         0.89214         1.10922
O         -5.28655        -1.14319        -2.53034
H         -6.12453        -1.54318        -2.83860
O          3.74435         5.36122        -2.07113
H          4.62712         5.22393        -2.47594
O          3.48233         8.18974        -1.22019
H          3.72024         7.39264        -1.75735
O         -4.65843         1.47678         1.19846
H         -3.80398         1.94580         1.37515
O         -9.93743         1.71633         2.73721
H         -9.03833         1.98641         3.04039
O         -5.72974         5.32702         1.54709
H         -6.22725         4.66210         2.12201
O         -8.84723         4.75638        -1.66919
H         -8.05582         4.26800        -1.98742
O          2.26023        -3.31082        -3.41869
H          2.91445        -2.83649        -3.98113
O        -10.02622        -2.66720        -1.48862
H        -10.29158        -3.51206        -1.90507
O         -5.78332        -7.22862         2.53102
H         -5.53175        -6.27543         2.51304
O          0.29066         6.38777        -1.63125
H          0.42663         5.62691        -2.25261
O         -2.29113         2.76531        -2.71285
H         -2.74605         3.52574        -3.14674
O         -6.42377        -1.38564         1.80129
H         -7.01852        -1.59905         2.55261
O         -3.53542        -1.00507         0.68196
H         -4.16393        -0.44190         1.20037
O          0.39082        -6.07403        -2.64380
H         -0.25817        -6.73640        -2.96736
O          1.03682         4.38891         1.39519
H          1.23828         5.09896         2.04207
O         -0.05244         1.54148        -3.14331
H         -0.87063         2.02504        -3.41446
O          6.40735        -1.81388         1.29240
H          7.01288        -2.13765         1.99665
O         -0.36999        10.20488         2.40725
H         -0.72240         9.34356         2.71429
O         -3.86585        -5.79776        -2.64514
H         -4.63987        -5.35196        -3.06041
O          8.10181         3.19954         2.54494
H          8.55172         2.37898         2.87987
O         -6.78052         8.91278        -1.31617
H         -6.88110         8.31689        -2.09204
O         -2.88588         5.12119         1.24476
H         -2.66221         5.82225         1.90389
O         -3.94746         1.01637        -2.38411
H         -4.65435         0.42772        -2.74598
O         -6.59162        -5.41370        -2.07467
H         -7.51571        -5.13225        -2.23550
O          1.10891         9.42814        -0.81362
H          1.91156         8.95106        -1.15185
O          5.62825         4.73337         1.97846
H          6.27207         4.17271         2.47529
O         -4.38384        10.18092        -1.32440
H         -5.32089         9.89378        -1.48450
O          9.65010         1.00024         2.62599
H          9.48229         0.03133         2.75234
O          4.69314        -8.23896        -1.30424
H          5.44455        -8.23434        -1.93378
O         -3.11633       -10.26174        -0.44364
H         -2.82819        -9.72564        -1.22366
H         11.95882        -1.34635         0.13192
H         11.96213         1.04011         0.67476
H         10.38203         2.97974        -0.00518
H          9.56067         5.41650         1.25633
H          8.28755         7.51714         1.63203
H          6.89908         9.56760         2.08349
H          4.75103        10.70689         2.05797
H          2.43720        10.73096         1.77606
H         -0.11702        11.19967         0.61413
H         -2.58222        11.20307         0.28369
H         -4.63701        10.31026         1.79940
H         -6.80136         9.12588         1.76890
H         -8.58154         7.61887        -0.12816
H         -9.67722         5.41299         0.10230
H        -10.77166         3.22575         0.37775
H        -11.96227         1.23339         0.82379
H        -11.97796        -1.09015         0.14934
H        -10.79295        -3.43579         0.30033
H         -9.62108        -5.59703         0.06176
H         -8.17075        -7.40495         1.31068
H         -6.87847        -9.63378         1.50738
H         -4.85399       -10.94159         1.26550
H         -2.40198        -9.91010         2.49324
H         -0.27797        -9.32842         3.11078
H          2.43652        -8.93214         3.55199
H          4.89814       -10.23122         2.59538
H          7.01958        -9.66266         1.50131
H          8.39533        -7.77201         0.73019
H          9.56816        -5.65886         0.27373
H         10.74876        -3.64772         0.32619
