         244
 CSIRO Nanostructure Databank - Neutral Graphene Oxide Data Set
C          2.00807         2.18983        -2.10584
C          1.99799         3.59926        -2.09764
C          3.00831         1.31920        -1.65018
C          3.00613         4.42551        -1.53990
C          1.73799         6.60100        -1.58187
C          1.57180         7.88678        -1.16755
C          2.82375         5.78173        -1.11193
C          2.40055         8.45154        -0.04700
C          1.26753        10.72371        -0.23520
C          1.30656        12.08496        -0.41914
C          2.48124         9.97218        -0.01285
C          2.51942        12.82524        -0.25931
C          1.60034        14.85528        -1.36189
C          1.76797        16.12564        -1.84240
C          2.67156        14.14685        -0.71502
C          3.03026        16.79629        -1.74818
C          3.19743        18.10822        -2.30783
C          4.34613         1.74400        -1.45605
C          4.31776         3.86917        -1.34701
C          5.36426         1.27130        -0.62735
C          5.24237         4.28219        -0.39709
C          3.84002         6.41144        -0.30171
C          3.73154         7.73501         0.06743
C          4.99383         5.60766         0.28305
C          4.78418         8.43210         0.90677
C          3.63328        10.64054         0.30095
C          3.59995        12.14331         0.55658
C          4.94414         9.90474         0.37588
C          4.95484        12.82196         0.50229
C          3.94444        14.82554        -0.57098
C          4.11212        16.15201        -1.11817
C          5.02384        14.18229         0.06315
C          5.39467        16.81861        -1.07703
C          4.40164        18.75570        -2.26179
C          5.54716        18.13866        -1.65139
C          6.46417         2.08477        -0.19330
C          6.39034         3.52347        -0.02622
C          7.64522         1.40648         0.21805
C          7.44819         4.22167         0.68988
C          6.28973         6.40247         0.21424
C          6.13503         7.75303         0.83595
C          7.43324         5.59734         0.82576
C          7.39851         8.54746         0.87214
C          6.00641        10.66307         1.16317
C          6.08516        12.13229         0.95227
C          7.24864         9.91275         1.52759
C          7.39337        12.74138         1.00711
C          6.28295        14.92723         0.23455
C          6.49188        16.20250        -0.47499
C          7.48866        14.19373         0.73358
C          7.77902        16.84262        -0.43204
C          6.77596        18.79307        -1.57957
C          7.91364        18.18263        -0.97659
C          8.73733         2.04538         0.81902
C          8.49547         3.41114         1.42991
C          9.96863         1.38412         0.95158
C          9.80233         4.17211         1.70674
C          8.58554         6.33616         1.32753
C          8.57307         7.74604         1.37234
C          9.80716         5.64830         1.57489
C          9.77680         8.47796         1.55229
C          8.51806        10.66889         1.91622
C          8.56119        12.06521         1.32663
C          9.78250         9.89888         1.62976
C          9.83761        12.76683         1.44158
C          8.83933        14.70448         0.29031
C          8.89949        16.18846         0.09600
C          9.92427        14.13514         1.14692
C         10.14709        16.87748         0.29017
C          9.16708        18.80336        -0.95483
C         10.28789        18.20188        -0.31589
C         11.17698         2.03065         1.32293
C         11.12500         3.45608         1.75281
C         12.40733         1.39509         1.19613
C         12.44138         4.25065         1.81384
C         11.03688         6.35460         1.50920
C         11.01633         7.77841         1.47507
C         12.29535         5.68106         1.34849
C         12.21483         8.51402         1.24319
C         10.99672        10.60864         1.61785
C         11.01425        12.03153         1.74178
C         12.22207         9.92296         1.32415
C         12.35039        12.66939         2.04615
C         11.09186        14.93826         1.52401
C         11.19029        16.32117         1.02718
C         12.33514        14.19786         1.97685
C         12.33719        17.20433         1.48628
C         11.55210        18.78322        -0.35359
C         12.64163        18.27674         0.43065
C         13.65151         2.11853         1.15188
C         13.62001         3.54547         1.19978
C         14.87253         1.45666         0.92998
C         14.74587         4.29495         0.79578
C         13.40500         6.39001         0.87695
C         13.35919         7.81774         0.76824
C         14.65253         5.70875         0.56603
C         14.44967         8.56228         0.23059
C         13.39821        10.67050         0.96292
C         13.42516        12.06266         1.17046
C         14.48503         9.95067         0.34561
C         14.50398        12.89260         0.59727
C         13.70632        14.87074         2.02012
C         13.61307        16.41852         1.90849
C         14.73141        14.27768         1.06778
C         14.92014        17.13020         1.78021
C         13.84784        18.92098         0.40073
C         14.89378        18.63575         1.44628
C         16.07569         2.18310         0.68463
C         15.96481         3.62520         0.47508
C         17.32642         1.57860         0.62755
C         17.03238         4.35056        -0.06908
C         15.70596         6.40231        -0.05184
C         15.39406         7.76204        -0.64698
C         16.91092         5.72640        -0.37530
C         16.58273         8.54294        -1.22016
C         15.79527        10.65935         0.11473
C         15.69436        12.17513        -0.00694
C         16.66397        10.07656        -0.99912
C         16.99281        12.88375        -0.07323
C         15.95240        14.90373         0.92798
C         16.14470        16.28871         1.47608
C         17.09891        14.23840         0.30764
C         17.40896        17.01239         1.12524
C         16.23793        19.21523         1.11256
C         17.39904        18.49851         1.02129
C         18.54522         2.45441         0.47496
C         18.22867         3.55990        -0.53106
C         19.83275         1.75178         0.11554
C         19.41714         4.41594        -0.87637
C         17.98168         6.40840        -1.08953
C         17.77284         7.73676        -1.59290
C         19.20360         5.74537        -1.33906
C         18.80336         8.29571        -2.36650
C         17.89275        10.87983        -1.22524
C         18.09181        12.17803        -0.64257
C         18.86789        10.43680        -2.11784
C         19.33725        12.85445        -0.86649
C         18.35764        14.91169         0.12687
C         18.50532        16.29268         0.43473
C         19.47668        14.21432        -0.44677
C         19.70295        16.98509         0.18498
C         18.65014        19.14409         0.76693
C         19.78870        18.41522         0.42024
C         20.84389         2.45012        -0.45459
C         20.68502         3.83205        -0.87503
C         21.83090         4.64500        -1.23192
C         20.29816         6.32826        -2.22246
C         20.12826         7.81163        -2.45672
C         21.66936         5.87171        -1.78266
C         21.19130         8.67265        -2.79485
C         20.20884        10.89951        -2.13002
C         20.42807        12.19342        -1.52004
C         21.23352        10.07098        -2.65848
C         21.67295        12.85300        -1.60526
C         20.72655        14.88086        -0.63067
C         20.85499        16.28889        -0.31389
C         21.81687        14.15632        -1.16537
C         22.05330        16.99489        -0.49263
C         21.03361        19.07963         0.20716
C         22.13913        18.37458        -0.22333
O         14.29516        16.95169         3.08814
O         10.36400         3.68686         2.99426
O         18.51851         9.47326        -3.07060
O         17.19150        16.45439         2.48092
O         14.66433        12.70740        -0.88225
O         11.45872        14.77466         2.97448
O          6.19834        10.11150         2.50929
O          4.70674         2.87535        -2.23850
O          6.74874        15.01754         1.65823
O         16.05306         9.52202        -2.18486
O          6.59586         6.57518        -1.20693
H          7.31910         7.25198        -1.25983
O          4.29364         8.46893         2.26641
H          3.30800         8.47033         2.23130
O          7.87800         3.14496         2.72249
H          8.61591         2.97584         3.35344
O         12.66251        12.31385         3.43043
H         12.05284        12.83393         3.99844
O          9.01410        14.12078        -1.06128
H          9.87848        14.42314        -1.41220
O         20.08486         5.69796        -3.54459
H         20.20986         4.73188        -3.42369
O         17.84008         2.89789        -1.77393
H         17.55254         3.59125        -2.40466
O          8.49988        10.85517         3.35928
H          7.54756        10.86528         3.62273
O         16.58906        10.41480         1.32063
H         16.06478        10.70182         2.09895
O         12.80711         4.35635         3.22937
H         11.95833         4.37263         3.73269
O          3.17387        12.28420         1.95884
H          2.30970        11.82826         2.04834
O         14.57712         7.42207        -1.81743
H         14.57693         8.21987        -2.39564
O          1.68471         8.12244         1.21813
H          1.51886         7.15497         1.20821
O          4.70423         5.37960         1.67997
H          3.94423         4.76684         1.74862
O         14.23000        14.54456         3.32409
H         13.68221        15.01628         3.98745
O         14.43374        19.35094         2.63820
H         14.94773        19.00313         3.39940
O         18.77013         3.10613         1.76434
H         18.92606         2.40765         2.43333
O          5.41095         9.83387        -1.01278
H          4.82004         9.21424        -1.49510
O         11.87776        17.93033         2.64664
H         12.64672        18.47524         2.94792
O          7.82575         8.85775        -0.52823
H          7.07048         9.35049        -0.95264
H          1.04184         1.72123        -2.35478
H          1.03670         4.07349        -2.34767
H          2.72954         0.28520        -1.40027
H          1.06243         6.18784        -2.34532
H          0.75194         8.49079        -1.58225
H          0.31990        10.18338        -0.36317
H          0.38940        12.59730        -0.74288
H          0.62080        14.37128        -1.47196
H          0.92994        16.64502        -2.32983
H          2.32920        18.58736        -2.78371
H          5.31379         0.24141        -0.24270
H          4.51092        19.76014        -2.69600
H          7.73996         0.33933        -0.03832
H          6.87318        19.80859        -1.99185
H         10.03805         0.34520         0.59094
H          9.29361        19.78770        -1.42970
H         12.42568         0.32354         0.94450
H         11.71546        19.69612        -0.94627
H         14.90488         0.35755         0.96159
H         13.98276        19.79331        -0.25768
H         17.43173         0.49990         0.82258
H         16.28112        20.31169         1.02348
H         19.99000         0.71399         0.44864
H         18.70061        20.24178         0.81793
H         21.82483         1.97561        -0.61279
H         22.83783         4.25825        -1.01341
H         22.54958         6.47383        -2.04962
H         22.15861         8.20119        -3.02982
H         22.22803        10.52324        -2.79385
H         22.53117        12.34730        -2.06762
H         22.79530        14.64045        -1.28075
H         22.95464        16.48170        -0.85240
H         21.09806        20.16108         0.39359
H         23.09665        18.89174        -0.37638
