         276
 CSIRO Nanostructure Databank - Neutral Graphene Oxide Data Set
C        -10.62781         0.50111         1.64639
C         -9.74545         1.37951         0.77480
C         -8.47150         0.59197         0.38454
C         -7.29188         1.28446        -0.19270
C         -6.26651         0.60442        -1.10846
C         -4.87200         1.36669        -1.06089
C         -3.53459         0.62923        -0.82585
C         -2.35865         1.44313        -0.25397
C         -1.42507         0.74637         0.72769
C         -0.26823         1.52342         1.60100
C          1.11326         0.78340         1.54566
C          2.41294         1.57897         1.56385
C          3.73958         0.90386         1.12837
C          4.98370         1.58814         1.76951
C          6.28914         0.82113         1.69966
C          7.51319         1.51835         1.14790
C          8.46746         0.64378         0.39218
C          9.33979         1.19155        -0.67993
C         10.40979         0.31710        -1.23218
C         -9.42506         2.67185         1.53887
C         -9.10266         3.83315         1.00018
C         -7.39387         2.73446        -0.59036
C         -6.17180         3.54286        -0.24714
C         -4.91370         2.85799        -0.78914
C         -3.64780         3.66467        -0.61511
C         -2.27264         2.99911        -0.35750
C         -1.42014         3.74505         0.67695
C         -0.24994         3.06922         1.35834
C          1.07077         3.85852         1.46296
C          2.38779         3.07933         1.58417
C          3.71218         3.84368         1.43452
C          5.01761         3.09773         1.65577
C          6.30085         3.83873         1.26434
C          7.51230         3.00311         0.84718
C          8.48537         3.55010        -0.13476
C          9.51219         2.68754        -0.85226
C         -8.87558         5.03407         0.49701
C         -7.54316         5.77098         0.61643
C         -6.23955         4.98348         0.17337
C         -5.12864         5.87745        -0.38824
C         -3.77847         5.15119        -0.48801
C         -2.51350         5.93113        -0.27033
C         -1.35622         5.23715         0.38060
C         -0.09543         6.02960         0.48729
C          1.14983         5.27728         0.91391
C          2.42636         5.67252         0.22882
C          3.72153         5.20830         0.81883
C          4.95838         6.00626         0.41447
C          6.26804         5.27642         0.75871
C          7.48925         5.82436         0.05205
C          8.52051         4.87765        -0.40134
C         -7.55317         7.11166        -0.06907
C         -6.43385         8.00335         0.16062
C         -5.05910         7.28009         0.23297
C         -3.83692         8.11432         0.03628
C         -2.54285         7.41567        -0.15883
C         -1.29805         8.25996        -0.06311
C         -0.03040         7.43294        -0.12127
C          0.69608         7.84667        -1.40187
C          2.43845         6.66972        -0.85670
C          3.40061         7.51180        -1.46630
C          5.11442         6.37844        -1.09086
C          6.16153         7.49098        -1.21771
C          7.35877         7.10044        -0.71431
C         -6.39049         9.38229        -0.38590
C         -5.26391        10.05657        -0.71692
C         -3.90281         9.54594        -0.43263
C         -2.65682        10.09456        -1.04499
C         -1.43780         9.52288        -0.85822
C         -0.15130        10.24998        -1.23399
C          1.05286         9.31758        -1.39918
C          2.30052         9.81022        -1.54772
C          3.50502         8.96315        -1.71886
C          4.84846         9.56418        -1.81306
C          5.99978         8.86848        -1.67421
C        -10.67277        -0.83614         1.54543
C         -9.85578        -1.57616         0.55171
C         -8.68996        -0.82506        -0.04302
C         -7.53839        -1.58985        -0.64111
C         -6.19966        -0.91537        -0.92731
C         -4.89724        -1.67457        -0.87668
C         -3.51641        -0.96193        -0.94941
C         -2.37491        -1.62162        -0.09602
C         -1.42175        -0.76231         0.72541
C         -0.19255        -1.46418         1.29672
C          1.13496        -0.71258         1.37803
C          2.43280        -1.44838         1.10775
C          3.72282        -0.66136         1.16863
C          4.93337        -1.42286         1.68875
C          6.25311        -0.69403         2.03228
C          7.57081        -1.42117         1.60563
C          8.73599        -0.72144         0.95672
C         10.00408        -1.46032         0.49075
C         10.61266        -0.92757        -0.78503
C         -9.83478        -3.04671         0.54384
C         -8.79230        -3.77922         0.00751
C         -7.59671        -3.07879        -0.58486
C         -6.30911        -3.88784        -0.77459
C         -4.93959        -3.16593        -0.58383
C         -3.76388        -3.85968         0.05456
C         -2.48714        -3.06804         0.33568
C         -1.43192        -3.73681         1.19166
C         -0.17273        -2.95575         1.46422
C          1.14506        -3.70480         1.61113
C          2.43349        -2.93341         1.46291
C          3.71021        -3.67933         1.12767
C          4.94321        -2.93280         1.59638
C          6.27048        -3.66636         1.59662
C          7.58383        -2.92493         1.60891
C          8.79507        -3.60933         1.06120
C          9.81370        -2.95596         0.47316
C         -8.85238        -5.19621        -0.15074
C         -7.63599        -5.90812        -0.36189
C         -6.43922        -5.11698         0.12691
C         -5.18126        -5.95162         0.30973
C         -3.96309        -5.17582         0.83254
C         -2.66818        -5.98558         0.77761
C         -1.41459        -5.22748         1.17225
C         -0.13151        -6.05913         1.23756
C          1.16047        -5.23836         1.51614
C          2.45805        -5.98250         1.30887
C          3.71509        -5.17961         1.06804
C          5.02347        -5.92391         1.14380
C          6.27778        -5.12514         1.18175
C          7.47493        -5.53973         0.33821
C          8.77704        -5.12472         1.08496
C         -7.50968        -7.12528        -0.98886
C         -6.15344        -7.64409        -1.38168
C         -5.10516        -7.31110        -0.31297
C         -3.77541        -7.99535        -0.47547
C         -2.56131        -7.28431         0.05747
C         -1.23020        -7.58740        -0.57037
C          0.00425        -6.90770        -0.05159
C          1.40782        -7.44428        -0.48576
C          2.40050        -7.45523         0.80781
C          3.75178        -8.06478         0.39752
C          5.03707        -7.32468         0.58008
C          6.28209        -7.85053        -0.16524
C          7.45732        -6.93122        -0.15689
C         -6.09976        -9.08704        -1.83126
C         -4.91581        -9.68899        -2.01271
C         -3.65712        -9.14520        -1.41689
C         -2.32562        -9.42702        -2.09590
C         -1.12155        -8.82549        -1.39263
C          0.09203        -9.39467        -1.57685
C          1.33648        -8.86714        -1.03962
C          2.44222        -9.63761        -1.11588
C          3.79646        -9.23638        -0.61870
C          4.69724        -8.84336        -1.78912
C          5.86666        -8.22826        -1.58225
O         -9.91144        -0.97310        -0.80346
O         -2.20819        -0.02229         1.69778
O          7.03832        -3.50796         2.83056
O         -3.97114        -3.94201        -1.36943
O          4.57758        -8.29436         1.57309
O          2.44198         2.29963         2.81658
O         -2.33980         6.74634        -1.46929
O          4.59007        -2.26896         2.82844
O          7.44155         3.70845         2.12922
O         -2.38365         1.00965        -1.64032
O          3.33536         7.85943        -2.78424
O         -5.61064        -1.46998        -2.13894
O          4.93356         2.41467         2.94511
O         -5.73533         7.65150         1.42090
O          1.22026        -0.11373         2.70158
O          5.85938        -5.90887         2.34196
O         -4.90108         2.33179        -2.14309
O         -1.74753        -4.48490         2.39615
O         -7.96179        -2.36392        -1.80522
O         -5.90363         3.95004         1.13873
O          3.17699        -1.16904        -0.10901
O          7.24301         6.08021         1.47699
O          1.90526        -5.81167         2.63362
O         -0.45493        -2.07082         2.59115
O          8.01282         0.63706        -1.01929
O         -0.26760         8.39574         0.95498
O         -1.74436        -2.66129        -0.87361
O         -1.43360         3.54666         2.08910
O         -6.85147        -4.63259         1.47921
O          3.67752         5.05783         2.25937
O          1.89370        -3.23150         2.76530
O         -2.67488        -7.24050         1.52040
O         -3.70799        -9.38322         0.02659
O         -5.51594        -7.15624         1.07212
O          4.99556         5.49830        -1.95270
O         -3.60387         4.52179        -1.80094
O          2.30450         5.34059        -1.23669
O         -1.04378         6.00482         1.58168
O         -7.27537         0.87380         1.19797
O          1.13954         5.01720         2.33297
O         -0.70825        -6.34189        -1.18676
O          8.65629        -0.83237         2.40377
O         -8.21832         3.11045        -1.40513
O          7.35258         1.34183         2.56332
O          3.71704        -4.34409        -0.15574
O          2.02205        -6.58409        -1.34768
O          0.46626         7.24070        -2.44900
O         -3.71308         9.19622         0.98844
O        -10.46991         1.69439        -0.41515
H         -9.89712         2.24174        -1.00228
O         -5.55379         6.15936        -1.74703
H         -5.06859         5.54387        -2.35052
O          6.72957        -9.07653         0.49048
H          6.77079        -8.88967         1.45413
O          0.13407        11.20828        -0.21140
H          0.12490        10.73921         0.65090
O          6.27135        -0.73104         3.46468
H          7.07828        -0.25231         3.75935
O          3.90311         1.26558        -0.26879
H          3.58319         0.51607        -0.82621
O          7.43741        -4.66225        -0.84889
H          6.82820        -5.05607        -1.51003
O         -6.80289         0.80657        -2.41526
H         -6.32982         0.20813        -3.03582
O         -3.16634        -1.20734        -2.31052
H         -2.29581        -0.79829        -2.50022
O         -6.32793        -4.32631        -2.14075
H         -6.43296        -3.51938        -2.69841
O         -2.37880        -8.91714        -3.43989
H         -2.22806        -7.94948        -3.42143
O         -5.72112        -6.93126        -2.58161
H         -5.97612        -5.97523        -2.51855
O          8.78764        -5.62993         2.40524
H          8.11750        -5.13591         2.93643
O         -7.38069         5.97025         2.03340
H         -7.09514         5.11597         2.42451
O         -6.27702        -3.31487         1.71681
H         -5.51807        -3.54993         2.32524
O         -1.45658         3.25585        -1.51948
H         -1.97113         3.02298        -2.32426
O          4.36861       -10.39793        -0.00483
H          5.25321       -10.13569         0.35606
O         -0.70357         1.43145         2.93944
H         -0.36034         0.59718         3.33664
O         -4.22114        -4.83939         2.21018
H         -4.27826        -5.68923         2.70139
O          1.88377        -8.31202         1.78471
H          1.24843        -7.82076         2.36773
O         11.02354        -1.20340         1.49507
H         10.58752        -1.30676         2.37235
O         10.82783         3.04637        -0.40358
H         10.84929         3.02200         0.57535
O         -0.29856        -6.96355         2.34242
H         -0.60496        -6.44394         3.11698
O          4.87733         7.24635         1.12968
H          4.98498         7.04883         2.08599
H         11.38239        -1.55836        -1.25472
H         10.96744         0.69833        -2.10054
H          9.47889         2.92428        -1.94761
H          9.25144         5.24946        -1.13554
H          8.22831         7.77858        -0.73122
H          6.94598         9.42077        -1.79495
H          4.89805        10.63321        -2.06747
H          2.45511        10.90107        -1.52604
H         -0.30671        10.81931        -2.18679
H         -2.73156        11.04228        -1.60096
H         -5.35182        11.03928        -1.20439
H         -7.36275         9.82816        -0.64654
H         -8.32976         7.36174        -0.80515
H         -9.74682         5.65050         0.21138
H         -9.59132         2.64588         2.63215
H        -11.27171         1.00851         2.38053
H        -11.33530        -1.42045         2.20166
H        -10.68712        -3.57769         0.99357
H         -9.82290        -5.71262        -0.13917
H         -8.40876        -7.63381        -1.36975
H         -7.02710        -9.55032        -2.20013
H         -4.85806       -10.69154        -2.46342
H         -2.18610       -10.53530        -2.18077
H          0.16251       -10.32646        -2.16097
H          2.37261       -10.64505        -1.55526
H          4.40206        -9.14289        -2.80617
H          6.54983        -8.00183        -2.41484
H          8.37331        -7.30230        -0.64245
H          9.66738        -5.52861         0.54249
H         10.65670        -3.54315         0.07453
