         235
 CSIRO Nanostructure Databank - Neutral Graphene Oxide Data Set
C        -10.62197         0.30034        -2.17048
C         -9.32216         1.07423        -2.19188
C         -8.23341         0.36125        -1.38264
C         -7.02968         1.14220        -0.98370
C         -6.17156         0.64960         0.15282
C         -4.91286         1.42639         0.44620
C         -3.74924         0.74008         0.95546
C         -2.60347         1.51091         1.42166
C         -1.32000         0.76957         1.81778
C         -0.01260         1.54322         1.98960
C          1.20102         0.78610         1.46542
C          2.43991         1.50782         1.47066
C          3.74411         0.77930         1.35212
C          4.96939         1.51339         0.87516
C          6.25926         0.73922         0.71293
C          7.51365         1.48679         0.29669
C          8.68555         0.70144        -0.11747
C          9.91300         1.38507        -0.51343
C         11.06113         0.65445        -1.06630
C         -9.42335         2.52639        -1.75166
C         -8.28478         3.27874        -1.50936
C         -6.93005         2.58217        -1.49168
C         -5.84697         3.38725        -0.80599
C         -4.77980         2.79398        -0.10137
C         -3.63036         3.53602         0.23171
C         -2.60329         3.02822         1.22827
C         -1.22136         3.62271         1.00236
C         -0.05219         2.96511         1.43059
C          1.18471         3.64205         1.39097
C          2.37181         2.88077         1.78445
C          3.59161         3.54782        -0.24302
C          4.85619         2.65857        -0.15557
C          6.09149         3.54293        -0.19332
C          7.45587         2.95816        -0.01662
C          8.68912         3.61708        -0.68401
C          9.93841         2.76310        -0.56440
C         -8.29384         4.69696        -1.45879
C         -7.09769         5.46948        -1.36784
C         -5.85182         4.78207        -1.01477
C         -4.67879         5.50903        -0.72829
C         -3.55107         4.87390        -0.18270
C         -2.23872         5.61182        -0.21159
C         -1.14469         4.97233         0.60406
C          0.06741         5.69461         0.68974
C          1.27454         4.99522         0.94823
C          2.51988         5.67112         0.61734
C          3.66291         4.96181         0.24483
C          4.86021         5.66668        -0.13100
C          5.86857         4.92270        -0.69615
C          7.86528         5.97412        -0.51011
C          8.81846         5.06646        -0.18857
C         -7.11688         6.86037        -1.46035
C         -5.89001         7.66296        -1.39751
C         -4.61958         6.95905        -0.99505
C         -3.53548         7.72254        -0.32506
C         -2.40054         7.09001         0.04715
C         -1.24519         7.87188         0.63749
C          0.07709         7.13609         0.51468
C          1.26591         7.83417         0.48015
C          2.54390         7.12610         0.49789
C          3.73142         7.81964         0.33831
C          5.04997         7.08613         0.37861
C          6.28724         7.87489        -0.08825
C          7.56555         7.37343        -0.19669
C         -5.93359         9.13452        -1.19006
C         -4.92067         9.82257        -0.64034
C         -3.71212         9.19206         0.01091
C         -2.40538         9.90549        -0.23969
C         -1.21155         9.28461         0.07887
C          0.03653         9.93955        -0.03174
C          1.27008         9.28509         0.25411
C          2.46921         9.97602         0.23201
C          3.75568         9.30560         0.59856
C          4.97636         9.98129         0.04202
C          6.13297         9.32225        -0.17312
C        -10.74943        -0.97932        -1.74998
C         -9.69823        -1.69610        -1.03862
C         -8.57457        -0.85535        -0.58114
C         -7.43955        -1.51120         0.16945
C         -6.16173        -0.80731         0.35472
C         -5.01626        -1.47988         0.80370
C         -3.84630        -0.69853         1.39376
C         -2.51137        -1.40574         1.21613
C         -1.26063        -0.69093         1.60249
C         -0.05169        -1.34305         1.40430
C          1.17731        -0.59371         1.32158
C          2.40128        -1.27889         0.81847
C          3.73237        -0.67840         1.03739
C          4.87873        -1.36117         0.61020
C          6.17269        -0.71741         0.51823
C          7.35074        -1.39645         0.18294
C          8.59010        -0.64673         0.16660
C         10.17731        -1.65022        -0.92884
C         11.13284        -0.66386        -1.41268
C         -9.73864        -3.02224        -0.69065
C         -8.62751        -3.68800        -0.02591
C         -7.50170        -2.95722         0.36412
C         -6.31436        -3.60387         0.93256
C         -5.03173        -2.87657         0.96241
C         -3.76813        -3.68361         0.76374
C         -2.47948        -2.88981         1.03059
C         -1.30698        -3.61478         1.68802
C          0.07037        -2.85248         1.57260
C          1.09984        -3.51885         0.68780
C          2.32897        -2.72831         0.38151
C          3.62118        -3.43406         0.19724
C          4.82860        -2.77992         0.28151
C          6.11093        -3.53491         0.07883
C          7.36613        -2.79196        -0.20272
C          8.40723        -3.41120        -0.93713
C          9.56228        -2.71272        -1.52155
C         -8.61585        -5.11812         0.09069
C         -7.48966        -5.83070         0.50309
C         -6.29855        -5.11529         1.01241
C         -4.99238        -5.82442         1.09500
C         -3.80980        -5.12216         1.24391
C         -2.53583        -5.87256         1.60750
C         -1.26919        -5.08439         1.28300
C         -0.12043        -5.67938         0.84388
C          1.06339        -4.87825         0.50581
C          2.20029        -5.52393        -0.19951
C          3.51331        -4.80811        -0.31900
C          4.71333        -5.61107        -0.62332
C          6.02707        -4.98563        -0.38511
C          7.16901        -5.56019        -1.11975
C          8.28789        -4.77897        -1.34970
C         -7.42874        -7.24695         0.46671
C         -6.23655        -7.94669         0.71335
C         -5.01235        -7.25860         0.97715
C         -3.76376        -7.96521         0.89987
C         -2.56599        -7.28494         1.06317
C         -1.29933        -7.99512         0.86334
C         -0.04346        -7.17075         0.74266
C          1.12241        -7.83248         0.05913
C          2.28783        -7.00840        -0.33513
C          3.27901        -7.54098        -1.37226
C          4.63026        -6.87639        -1.15026
C          5.83901        -7.58685        -1.52671
C          7.04632        -6.90593        -1.58835
C         -6.21027        -9.38840         0.58427
C         -5.03816       -10.07899         0.55058
C         -3.76410        -9.40130         0.62002
C         -2.58626       -10.07943         0.39046
C         -1.32877        -9.37675         0.29782
C         -0.24469        -9.92861        -0.32217
C          0.89711        -9.07214        -0.80432
C          2.21241        -9.77242        -1.04189
C          3.33671        -9.05800        -1.32042
C          4.59002        -9.69899        -1.66729
C          5.74706        -8.99882        -1.82874
O         -8.52542        -0.71959         0.86180
O          4.85583         1.91518        -1.40275
H          3.92245         1.91632        -1.73192
O          6.86499         5.53151        -1.44419
O         -0.36556        -7.83656         1.99948
O         -4.11748        -0.72930         2.82395
H         -4.84999        -0.10047         3.00195
O          2.16714        -1.65234        -0.61118
O         -3.04251         3.61412         2.49190
H         -2.84457         2.95349         3.19687
O          7.22669         1.19594         1.71352
O         -1.50849         8.01663         2.07729
O         -2.28082         1.16828         2.85318
O         -1.76543         5.48400        -1.59790
H         -2.43891         5.89835        -2.18025
O          5.32521         6.89460         1.81187
H          5.10283         7.75032         2.25247
O          0.70810        -2.90303         2.83971
O          3.90533         9.40367         2.08208
H          3.03463         9.17495         2.47449
O          8.46324         3.58916        -2.11803
H          7.83467         4.31658        -2.34176
O         -6.53628         2.52551        -2.89864
H         -5.83508         1.84530        -2.99291
O          2.67251         3.15573        -0.95274
O          2.53154        -4.85265        -1.46396
O         -2.59024        -6.03808         3.06114
H         -2.28645        -5.16848         3.44215
O          4.69141         1.43925         2.31040
O          2.31986        -7.78559         0.89813
O          2.78888        -7.19651        -2.69902
H          2.69088        -6.20973        -2.70975
O         -4.84735         7.29702        -2.40566
O          9.75525        -1.37989         0.38719
O          6.27638        -4.64847         1.02544
O         -3.96187         9.27991         1.45007
H         -3.15224         8.93731         1.90752
O         -8.92009         1.12404        -3.58368
H         -8.02987         1.55900        -3.60631
O         -3.80532        -3.89892        -0.70016
H         -3.32026        -3.13407        -1.10056
O          3.34219         3.57903         2.38271
H          4.07246         2.96392         2.66960
O         -6.14049         1.41355         1.39390
O          0.22054         1.67505         3.41949
H         -0.64640         1.55680         3.87014
H         -1.55156         7.11565         2.46458
O         -1.63796        -3.58250         3.10024
H         -0.74986        -3.37203         3.53383
O         -2.23279        -2.02132        -0.11674
O          0.43297        -8.56277        -2.10059
H          1.21017        -8.14570        -2.55880
O         -6.96286         0.18184        -2.09647
O          6.82093         3.67213         1.08241
O         -6.58313        -4.32442         2.21228
H         11.96247        -0.99638        -2.05647
H         11.86943         1.30620        -1.43739
H         10.87144         3.25059        -0.89101
H          9.60575         5.31709         0.53594
H          8.39661         8.09834        -0.25471
H          7.01502         9.89083        -0.50968
H          4.93712        11.07262        -0.09429
H          2.47046        11.05889         0.03480
H          0.05928        10.99515        -0.34248
H         -2.40679        10.95046        -0.58632
H         -5.00875        10.91545        -0.53781
H         -6.82121         9.67062        -1.56203
H         -8.08068         7.38216        -1.56303
H         -9.25307         5.22298        -1.58073
H        -10.39063         3.04172        -1.86162
H        -11.47643         0.78343        -2.66854
H        -11.70900        -1.50069        -1.89168
H        -10.59620        -3.63953        -0.99846
H         -9.49988        -5.67695        -0.25198
H         -8.32819        -7.81163         0.17773
H         -7.16903        -9.91590         0.47593
H         -5.04089       -11.17087         0.41955
H         -2.61240       -11.15164         0.14422
H         -0.32089       -10.95216        -0.72173
H          2.24302       -10.87319        -1.04906
H          4.58425       -10.78974        -1.81271
H          6.67045        -9.52421        -2.11410
H          7.94033        -7.41369        -1.98079
H          9.12273        -5.21376        -1.91984
H          9.91294        -3.07563        -2.49926
