         324
 CSIRO Nanostructure Databank - Neutral Graphene Oxide Data Set
C          1.43057         3.63746         2.50201
C          0.28028         4.41095         2.28553
C          1.27758         6.42272         1.15526
C          0.18028         5.66312         1.65177
C          1.29649         7.86994         1.03004
C          0.05391         8.60431         0.94737
C          1.20723        10.76270         0.64319
C         -0.00450         9.93059         0.66295
C          1.19272        12.14321         0.10099
C         -0.00024        12.81644        -0.12538
C          1.14898        14.92628        -0.66406
C         -0.04693        14.18571        -0.42235
C          1.12627        16.37135        -0.81092
C         -0.09794        17.09969        -0.79098
C          1.07835        19.22383        -0.35977
C         -0.13949        18.45424        -0.57786
C          1.04634        20.74284        -0.36640
C         -0.14722        21.53541        -0.77801
C          1.01397        23.61589        -0.12424
C         -0.13500        22.87952        -0.71386
C          1.09486        25.09716        -0.15633
C         -0.08168        25.86189        -0.30614
C          1.18613        27.92616        -0.17649
C         -0.04447        27.24696        -0.30336
C          1.23390        29.36014        -0.17948
C          3.95035         3.56438         2.03722
C          2.61525         3.82322         1.74425
C          3.74932         6.36402         0.80192
C          2.47968         5.75408         0.84060
C          3.75603         7.79581         0.70221
C          2.51827         8.53022         0.80614
C          3.77980        10.71592         0.26049
C          2.53260        10.01654         0.74553
C          3.64449        12.02135        -0.50777
C          2.50108        12.90284         0.02800
C          3.57424        14.92446        -1.14632
C          2.36923        14.22875        -0.67791
C          3.56914        16.39571        -0.98708
C          2.37313        17.09754        -0.80461
C          3.55648        19.24993        -0.42421
C          2.37637        18.53792        -0.56228
C          3.60337        20.68336        -0.18263
C          2.38427        21.47241        -0.64915
C          3.57281        23.60746         0.08634
C          2.30606        22.86053        -0.00246
C          3.59008        24.99475         0.11714
C          2.34681        25.74634        -0.02371
C          3.64112        27.86753         0.03249
C          2.39190        27.17465        -0.04943
C          3.66260        29.29892         0.01091
C          2.42437        30.02251        -0.08311
C          6.29208         3.58029         1.38231
C          5.04330         4.22956         1.36132
C          6.17673         6.26962         0.53460
C          4.96408         5.59135         0.84857
C          6.15782         7.67516         0.22785
C          4.98104         8.43064         0.39599
C          6.06352        10.33692        -0.84348
C          5.01563         9.89743         0.14759
C          6.10933        11.82184        -1.10789
C          4.85236        12.63078        -1.19615
C          6.12060        15.00347        -1.26882
C          4.86192        14.17219        -1.42694
C          6.10725        16.37249        -0.94945
C          4.83795        17.11429        -1.05267
C          6.08517        19.16067        -0.13439
C          4.83870        18.58580        -0.70240
C          6.06883        20.61938         0.27009
C          4.77732        21.34458         0.10281
C          6.09121        23.54926         0.52484
C          4.78401        22.80999         0.35066
C          6.08220        25.00917         0.26110
C          4.85926        25.70557         0.18416
C          6.09973        27.84836         0.13946
C          4.86879        27.14141         0.11286
C          6.11297        29.28807         0.12697
C          4.88399        29.98599         0.07339
C          8.71950         3.48593         0.83863
C          7.48212         4.18481         0.90073
C          8.62749         6.22551         0.16263
C          7.42080         5.56431         0.52716
C          8.61496         7.62963        -0.12498
C          7.39458         8.34894        -0.12674
C          8.61300        10.44570        -0.55813
C          7.39555         9.71601        -0.49233
C          8.58494        11.80567        -0.98892
C          7.34419        12.27212        -1.51649
C          8.60932        15.00590        -1.08206
C          7.39010        14.46839        -1.53602
C          8.56520        16.37498        -0.74837
C          7.33444        17.08930        -0.78100
C          8.55968        19.22445        -0.41407
C          7.35506        18.49394        -0.46939
C          8.53015        20.67175        -0.17006
C          7.35883        21.33706         0.17208
C          8.49977        23.52391        -0.26046
C          7.43326        22.81105         0.56971
C          8.56133        25.00602         0.03807
C          7.32368        25.70991         0.15782
C          8.57315        27.84432         0.14284
C          7.33520        27.13771         0.14466
C          8.57794        29.28784         0.17827
C          7.34408        29.97798         0.16002
C         11.17833         3.42654         0.31912
C          9.89809         4.11024         0.38238
C         11.00663         6.16234        -0.50801
C          9.82962         5.49169         0.05490
C         11.04797         7.62284        -0.49316
C          9.85595         8.32365        -0.33653
C         11.07927        10.45053        -0.60051
C          9.85826         9.76180        -0.39765
C         11.06819        11.91742        -0.53210
C          9.72948        12.69716        -0.76257
C         11.04694        14.82439        -0.80579
C          9.83299        14.19108        -1.00306
C         11.11981        16.26934        -0.45698
C          9.79284        17.08909        -0.40228
C         11.06673        19.23898        -0.75738
C          9.79770        18.54342        -0.55679
C         11.06493        20.76083        -0.72564
C          9.78556        21.39758        -0.22081
C         11.05495        23.48202        -0.07546
C          9.81366        22.78266        -0.12981
C         11.03617        24.96014        -0.15850
C          9.76504        25.70159        -0.00961
C         11.03668        27.85424         0.23644
C          9.80038        27.13258         0.11722
C         11.03931        29.29108         0.28977
C          9.80514        29.98248         0.22802
C         13.63214         3.36657        -0.06385
C         12.34661         4.02622        -0.11590
C         13.56674         6.15884        -0.94722
C         12.29105         5.39887        -0.67790
C         13.58637         7.63957        -0.86287
C         12.36259         8.33018        -0.34199
C         13.49366        10.44787        -1.12161
C         12.30497         9.76674        -0.74348
C         13.29505        11.83760        -1.46309
C         12.27187        12.60891        -0.97453
C         13.65282        14.81993        -0.65019
C         12.33772        14.07331        -0.72516
C         13.63087        16.31739        -0.68670
C         12.36087        17.00556        -0.56514
C         13.57825        19.18073        -0.06285
C         12.38697        18.46914        -0.60489
C         13.45188        20.61583         0.18279
C         12.30759        21.34498        -0.08756
C         13.50303        23.48492         0.32393
C         12.28004        22.78867         0.05712
C         13.45921        24.92156         0.62945
C         12.30133        25.71086         0.14076
C         13.46613        27.85367         0.62586
C         12.27109        27.16739         0.39507
C         13.50112        29.28757         0.50482
C         12.27668        29.97797         0.35980
C         16.09622         3.29626        -0.34650
C         14.82089         3.97461        -0.41208
C         16.16893         6.13426        -0.95368
C         14.84387         5.38014        -0.91413
C         16.02743         7.62790        -0.65340
C         14.76807         8.37681        -0.95899
C         16.10438        10.56447        -1.14508
C         14.77585         9.81924        -1.06827
C         16.23231        12.06142        -0.93147
C         15.20974        12.92397        -1.34213
C         16.11826        14.81752        -0.19607
C         15.01811        14.21351        -0.82383
C         15.98159        16.17961         0.36878
C         14.85311        17.04614        -0.11682
C         15.87646        19.10065         0.98419
C         14.70616        18.46030         0.31158
C         15.89975        20.60809         1.04005
C         14.62955        21.34554         0.71772
C         15.95399        23.49078         0.71554
C         14.70378        22.80793         0.53954
C         16.00154        24.91032         0.80658
C         14.73032        25.63936         0.98385
C         16.02197        27.85952         0.93351
C         14.71151        27.13698         0.98501
C         16.00295        29.29110         0.52366
C         14.75203        29.95721         0.41637
C         18.56410         3.32248        -0.30907
C         17.28624         3.98508        -0.31018
C         18.55829         6.19949        -0.26597
C         17.23944         5.47792        -0.05494
C         18.58331         7.60029        -0.38734
C         17.30317         8.35931        -0.44436
C         18.59958        10.48466        -0.35827
C         17.36407         9.80239        -0.82365
C         18.51759        11.88361         0.07311
C         17.32716        12.67983        -0.27842
C         18.54391        14.79157         0.36564
C         17.31873        14.07949        -0.00278
C         18.52114        16.18811         0.62433
C         17.23023        16.85448         0.88813
C         18.47065        19.09139         1.19036
C         17.16748        18.33735         1.18520
C         18.44160        20.61345         1.00779
C         17.17082        21.34356         0.88409
C         18.44556        23.45510         0.59247
C         17.18520        22.73372         0.72078
C         18.45099        24.88409         0.54848
C         17.22294        25.62082         0.70002
C         18.45767        27.75230         0.54670
C         17.26858        27.06512         0.73363
C         18.49748        29.25640         0.75099
C         17.21268        29.93203         0.35003
C         19.73600         4.02115        -0.27441
C         20.98635         6.17596        -0.38607
C         19.76813         5.47015        -0.29083
C         21.00720         7.56563        -0.41512
C         19.80954         8.31308        -0.41015
C         21.02259        10.52250        -0.10523
C         19.79082         9.77999        -0.27599
C         21.05854        11.87244         0.06060
C         19.83966        12.64225         0.32365
C         20.98172        14.88589         0.28876
C         19.79947        14.12292         0.29250
C         20.94746        16.26655         0.39913
C         19.72515        16.95593         0.62652
C         20.91191        19.16010         0.86316
C         19.70914        18.37694         0.84224
C         20.90882        20.51706         0.71956
C         19.64654        21.23523         0.32594
C         20.85723        23.45676         0.27112
C         19.66535        22.74668         0.45788
C         20.86585        24.84879         0.21553
C         19.67646        25.58580         0.34073
C         20.80288        27.76125        -0.13383
C         19.68007        27.04296         0.26006
C         20.77165        29.18654        -0.26802
C         19.69142        29.91003         0.11660
O         16.99142        10.06956        -2.22233
O         18.65917        20.01892         2.31317
O          4.94996        18.16558        -2.09320
O         14.26792        12.45029        -2.25150
O         19.02979        12.10719         1.42124
O          3.77925        11.92762        -1.94928
O         15.34846        27.65385         2.21851
O         14.15555         5.58811        -2.19214
O          6.00185        19.53872         1.27970
O          4.82166        10.76793         1.30284
O         16.30427        16.15466         1.78261
O          0.98710        20.06713         0.88744
O          1.96945        10.67391         1.92740
O         13.02099        14.33021         0.57798
O          2.39783         4.41173         0.47341
O          1.45110        23.01997         1.16126
O          4.03376        14.54497        -2.55293
O         11.38780         5.53783        -1.81758
O         13.82623        25.14316         2.03257
O          7.43525        13.36665        -2.37007
O          2.53956        21.67243        -2.01151
O         16.27527        18.58257         2.29949
O         16.42958         8.06725         0.71061
O         15.00557        21.04510         2.11937
O         10.42947        16.58766         0.81898
O          5.30716        23.17249         1.70405
O         11.84282        18.84192        -1.95940
O         14.64241        16.89862        -1.56856
O         10.31349        12.44701         0.57432
O         11.92902        25.43053        -1.25056
O         19.41913        20.96916        -1.10489
H         20.15777        21.37579        -1.60556
O         18.62765        29.47248         2.20430
H         17.85256        29.04828         2.63294
O         16.68334         6.04236        -2.30001
H         15.90276         6.02009        -2.90258
O          7.88369        22.84248         1.93989
H          7.09961        22.64685         2.50286
O          8.07953        23.39851        -1.64752
H          8.84597        23.60467        -2.22342
O         11.10585        21.22623        -2.11583
H         11.60297        20.53935        -2.62255
O         16.85873         5.57778         1.33571
H         16.79092         6.53999         1.55869
O          5.66158         9.74472        -2.12753
H          4.93926        10.31255        -2.48902
O         12.55237         8.32078         1.15440
H         12.01597         9.05713         1.52262
O          2.90133        13.23276         1.40364
H          2.72869        12.42697         1.95465
H          1.42109         2.89954         3.31749
H         -0.62591         4.08596         2.82168
H         -0.78866         6.17380         1.76002
H         -0.88478         8.03478         0.99521
H         -0.97958        10.39491         0.46215
H         -0.95584        12.28630        -0.00545
H         -1.02679        14.67609        -0.47113
H         -1.04834        16.55980        -0.90046
H         -1.10913        18.96437        -0.49319
H         -1.02697        21.01403        -1.18394
H         -1.00246        23.44918        -1.07812
H         -1.05118        25.35334        -0.39664
H         -0.97440        27.82538        -0.39774
H          0.28994        29.91771        -0.26422
H          4.20478         2.86573         2.84865
H          2.45619        31.12156        -0.08826
H          6.34299         2.55189         1.77062
H          4.88868        31.08610         0.06079
H          8.74752         2.42776         1.13970
H          7.34318        31.07826         0.16712
H         11.21857         2.38800         0.68239
H          9.80088        31.08218         0.25285
H         13.65757         2.33183         0.31170
H         12.28263        31.07623         0.30113
H         16.09937         2.19480        -0.32680
H         14.75387        31.03918         0.21702
H         18.58059         2.22294        -0.35600
H         17.23489        31.00199         0.09258
H         20.69608         3.48405        -0.28363
H         21.93242         5.61623        -0.41493
H         21.97921         8.07558        -0.44987
H         21.97525         9.98928        -0.22766
H         22.02475        12.39465         0.01358
H         21.95550        14.38550         0.19895
H         21.89454        16.82003         0.37130
H         21.87818        18.65232         0.99851
H         21.86096        21.06256         0.77579
H         21.80911        22.92083         0.15317
H         21.82574        25.36213         0.07284
H         21.73287        27.24204        -0.40130
H         21.65453        29.68967        -0.68838
H         19.69085        31.00639         0.02886
