         640
 CSIRO Nanostructure Databank - Neutral Graphene Oxide Data Set
C         23.54287        27.57729         3.13708
C         23.49103        28.92871         2.94872
C         23.39523        31.81889         2.47907
C         23.33871        33.15431         2.16600
C         23.19996        35.99849         1.37545
C         23.15706        37.35058         1.09167
C         23.18064        40.35176         1.18950
C         23.20918        41.70284         1.18957
C         23.15373        44.64617         0.86079
C         23.15227        46.01557         0.78459
C         25.95977        24.72298         2.99038
C         24.80137        25.43732         3.16566
C         25.97750        27.55810         2.78470
C         24.78273        26.85944         3.04033
C         25.95315        29.00431         2.63135
C         24.67784        29.70515         2.70304
C         25.89906        31.91290         2.54574
C         24.62554        31.09736         2.53818
C         25.76892        33.26863         1.87754
C         24.51614        33.91084         1.82424
C         25.63874        36.03728         1.22940
C         24.43591        35.30351         1.45965
C         25.57556        37.44952         0.96057
C         24.34013        38.10182         0.89731
C         25.54872        40.29306         0.43414
C         24.23136        39.55084         0.45860
C         25.52995        41.72611         0.37708
C         24.34039        42.45568         0.66787
C         25.51197        44.57625         0.15019
C         24.32914        43.87715         0.56996
C         25.51569        46.02518         0.09048
C         24.32902        46.74050         0.42081
C         25.48504        48.85697         0.05670
C         24.34164        48.15933         0.39008
C         28.44172        23.20974         2.44871
C         28.40266        24.66221         2.47503
C         27.19161        25.37998         2.67599
C         28.38615        27.49239         2.25630
C         27.19539        26.81584         2.59734
C         28.45734        28.99324         2.36018
C         27.12143        29.69875         2.33412
C         28.25419        31.81551         1.73841
C         27.12998        31.13537         2.13587
C         28.29692        33.32730         1.80849
C         26.94845        33.98568         1.56832
C         28.17053        36.15473         1.27576
C         26.89007        35.35317         1.28038
C         27.99985        37.49407         0.59407
C         26.80375        38.16530         0.62061
C         27.97697        40.33170         0.11031
C         26.75360        39.60041         0.33376
C         27.96862        41.73125        -0.06231
C         26.73032        42.43823         0.06953
C         27.89776        44.51332        -0.60861
C         26.68725        43.84047        -0.11423
C         27.89133        46.01931        -0.65917
C         26.68768        46.75597        -0.23221
C         27.88643        48.89701        -0.66552
C         26.69438        48.17635        -0.26181
C         27.89055        50.24122        -1.05743
C         30.93013        23.22450         2.47912
C         29.60123        22.52209         2.35907
C         30.83370        24.65204         1.99810
C         29.60770        25.36147         2.16372
C         30.74408        27.45993         1.47034
C         29.57099        26.78437         1.97631
C         30.68642        28.87414         1.12975
C         29.35705        29.58720         1.27328
C         30.43463        31.70737         0.40466
C         29.57462        31.09792         1.51921
C         30.54021        33.20876         0.53452
C         29.40082        33.95035         0.98466
C         30.46976        36.01060         0.27342
C         29.36647        35.35771         0.78881
C         30.47269        37.44579        -0.04810
C         29.17924        38.17706         0.04255
C         30.43587        40.29558        -0.18348
C         29.21862        39.63878         0.01556
C         30.44770        41.72091        -0.40000
C         29.20384        42.42849        -0.33109
C         30.40683        44.51166        -0.82501
C         29.19730        43.81643        -0.55729
C         30.42664        45.93494        -0.95248
C         29.21229        46.69248        -0.57354
C         30.36413        48.85968        -1.21874
C         29.18564        48.20580        -0.64494
C         30.32261        50.23670        -1.49318
C         29.07120        50.90712        -1.39708
C         33.29846        20.35290         1.65432
C         32.17686        21.07254         2.06281
C         33.21949        23.14936         1.35347
C         32.10674        22.45999         1.90769
C         33.17906        24.57413         1.19368
C         31.97365        25.31329         1.50795
C         33.01548        27.34789         0.45835
C         31.90281        26.71808         1.23835
C         33.05298        28.85135         0.49611
C         31.78353        29.55083         0.61908
C         32.90406        31.64256        -0.04458
C         31.77253        30.99148         0.34625
C         32.87667        33.09567        -0.46193
C         31.65587        33.83361         0.01486
C         32.94322        35.97692         0.19376
C         31.65932        35.30131        -0.26135
C         32.98052        37.47047         0.30264
C         31.72605        38.21553         0.03246
C         32.92009        40.43544         0.13553
C         31.69089        39.57723        -0.07059
C         32.89218        41.54796        -0.93590
C         31.64217        42.38981        -0.74447
C         32.83846        44.50668        -1.29979
C         31.64144        43.79177        -0.95781
C         32.83990        45.90535        -1.47079
C         31.60190        46.61235        -1.28445
C         32.84644        48.81200        -1.86089
C         31.52173        48.05479        -1.58981
C         32.81587        50.27165        -1.71951
C         31.57901        50.95980        -1.70772
C         32.79863        53.06967        -1.69588
C         31.60344        52.37417        -1.71430
C         35.67574        18.85790         0.82759
C         35.61025        20.26456         0.70337
C         34.42310        21.00134         1.10513
C         35.55699        23.10778         0.48307
C         34.39089        22.41687         0.96512
C         35.54449        24.53473         0.44389
C         34.34618        25.25416         0.73799
C         35.53153        27.37377         0.38096
C         34.34532        26.67016         0.60582
C         35.53010        28.86779         0.60134
C         34.21287        29.51036         0.22347
C         35.42530        31.69904         0.14033
C         34.19167        30.90517        -0.34069
C         35.42388        33.14064        -0.31044
C         34.17837        33.86409        -0.15290
C         35.46124        35.99800         0.03517
C         34.19657        35.23295        -0.03131
C         35.44544        37.48329        -0.10361
C         34.26992        38.17499         0.09912
C         35.49292        40.35649        -0.31153
C         34.24396        39.65415         0.12976
C         35.39573        41.74365        -0.84220
C         34.17456        42.35008        -1.00572
C         35.38776        44.51139        -1.64428
C         34.08280        43.73657        -1.50358
C         35.34467        45.97950        -1.58723
C         34.09505        46.65234        -1.63216
C         35.31463        48.81380        -1.60185
C         34.09939        48.07355        -1.67718
C         35.29346        50.25080        -1.61469
C         34.05108        50.97351        -1.65285
C         35.29504        53.12412        -1.62021
C         34.04077        52.39936        -1.63764
C         35.32676        54.54834        -1.57109
C         37.91657        18.81725        -0.12643
C         36.79887        18.15429         0.43674
C         37.87794        20.21910        -0.25123
C         36.73597        20.95266         0.16456
C         37.87901        23.11244        -0.37481
C         36.71555        22.39501         0.07326
C         37.86484        24.52373        -0.36098
C         36.71424        25.24807         0.05432
C         37.93656        27.41880        -0.20637
C         36.72394        26.67953         0.08271
C         37.94202        28.82623        -0.17048
C         36.74294        29.58153         0.05269
C         37.83075        31.62743        -0.81798
C         36.70028        30.94509        -0.14463
C         37.75066        33.08335        -1.17768
C         36.57540        33.81316        -0.66571
C         37.92750        35.99086        -0.79858
C         36.70939        35.24885        -0.39363
C         37.90814        37.42499        -0.70103
C         36.69729        38.15870        -0.44021
C         37.89849        40.27606        -0.88940
C         36.70461        39.56178        -0.60594
C         37.88652        41.71604        -1.01146
C         36.64899        42.43807        -1.07330
C         37.86303        44.55977        -1.35207
C         36.64729        43.81817        -1.33388
C         37.83601        45.98431        -1.48413
C         36.57455        46.69001        -1.54240
C         37.79357        48.84743        -1.51759
C         36.55999        48.11362        -1.55718
C         37.75348        50.25386        -1.48146
C         36.52249        50.97824        -1.57184
C         37.77822        53.17244        -1.91613
C         36.50776        52.40684        -1.61978
C         37.76761        54.62725        -1.50113
C         36.52123        55.25801        -1.43726
C         40.30336        15.95981        -0.78416
C         39.13126        16.66395        -0.54359
C         40.32494        18.78675        -0.77355
C         39.11474        18.07283        -0.50924
C         40.32903        20.20544        -0.85058
C         39.00294        20.91647        -0.97341
C         40.29999        23.05268        -0.92967
C         39.08754        22.39758        -0.71641
C         40.31904        24.51560        -1.10243
C         39.03162        25.28083        -0.83472
C         40.35819        27.39177        -0.77412
C         39.12404        26.72171        -0.56486
C         40.42660        28.81102        -0.69993
C         39.21631        29.53759        -0.33207
C         40.35349        31.66885        -1.26186
C         39.18119        31.03085        -0.65585
C         40.26392        33.06226        -1.74301
C         38.94442        33.87938        -1.71904
C         40.32908        35.98673        -1.30697
C         39.07613        35.29356        -1.16943
C         40.34179        37.41166        -1.14952
C         39.12023        38.13231        -0.95173
C         40.35688        40.27684        -1.11971
C         39.12531        39.56369        -0.99051
C         40.35813        41.71189        -1.16463
C         39.10601        42.42492        -1.14252
C         40.32624        44.57687        -1.30895
C         39.09789        43.85187        -1.24338
C         40.29813        45.97711        -1.47681
C         39.06681        46.70523        -1.52265
C         40.27455        48.88464        -1.49437
C         39.05671        48.14409        -1.53079
C         40.28480        50.27645        -1.32064
C         39.00362        50.99510        -1.24836
C         40.33245        53.18489        -1.68105
C         39.01875        52.47946        -1.40195
C         40.25267        54.62536        -1.22397
C         39.01547        55.31723        -1.26232
C         40.19132        57.39967        -0.73814
C         39.02546        56.72797        -1.01105
C         42.75368        15.93489        -1.16331
C         41.53040        16.64100        -0.96419
C         42.77669        18.76606        -1.13411
C         41.54709        18.06532        -0.95424
C         42.78248        20.19591        -1.13681
C         41.54196        20.90992        -1.01577
C         42.77536        23.05497        -1.19589
C         41.54679        22.34550        -1.05985
C         42.81343        24.49524        -1.15557
C         41.59169        25.25170        -1.02778
C         42.84163        27.39774        -0.90888
C         41.57883        26.63954        -0.93385
C         42.83349        28.85490        -1.13561
C         41.61473        29.54841        -0.99573
C         42.82709        31.68986        -1.41440
C         41.57392        30.98536        -1.22832
C         42.83690        33.09526        -1.50875
C         41.58226        33.83112        -1.74986
C         42.79341        35.97837        -1.46036
C         41.55253        35.29468        -1.52719
C         42.80401        37.40524        -1.33109
C         41.57557        38.12098        -1.22212
C         42.81804        40.26346        -1.17479
C         41.57921        39.55475        -1.17195
C         42.82455        41.69721        -1.21007
C         41.57806        42.42096        -1.24649
C         42.80337        44.56494        -1.31904
C         41.58505        43.86139        -1.29785
C         42.84013        45.98313        -1.36479
C         41.57496        46.67844        -1.66939
C         42.81045        48.89143        -1.30007
C         41.57138        48.20285        -1.67484
C         42.74971        50.28627        -1.06668
C         41.50340        51.00505        -1.17791
C         42.68849        53.12806        -0.80850
C         41.51591        52.42476        -1.13290
C         42.68577        54.56960        -0.70147
C         41.45148        55.29305        -0.87102
C         42.63624        57.37812        -0.33717
C         41.42860        56.70270        -0.64219
C         43.93897        16.61145        -1.32125
C         45.23014        18.75518        -1.42345
C         43.99144        18.03802        -1.30216
C         45.23623        20.18031        -1.40507
C         44.00394        20.90453        -1.29074
C         45.24502        23.04218        -1.42928
C         44.00700        22.33746        -1.31457
C         45.25879        24.46564        -1.46132
C         44.03619        25.16965        -1.31114
C         45.24183        27.35707        -1.85795
C         44.10805        26.63610        -1.16468
C         45.29790        28.83107        -1.50654
C         44.07567        29.54207        -1.32859
C         45.30169        31.67185        -1.54090
C         44.06956        30.97234        -1.38945
C         45.29584        33.11129        -1.61917
C         44.06623        33.81936        -1.54792
C         45.26798        35.97029        -1.52204
C         44.03874        35.25829        -1.53206
C         45.26760        37.40395        -1.40484
C         44.04716        38.11068        -1.30028
C         45.26917        40.26033        -1.06700
C         44.04439        39.54829        -1.18035
C         45.27250        41.68827        -1.05517
C         44.05280        42.38520        -1.20771
C         45.31507        44.57379        -1.05881
C         44.09704        43.84116        -1.56546
C         45.29560        45.99128        -0.99365
C         44.04371        46.70381        -1.20778
C         45.23178        48.83707        -0.87570
C         44.03808        48.14915        -1.15552
C         45.26772        50.34661        -0.96453
C         43.93326        51.01744        -0.79114
C         45.10726        53.11367        -0.19308
C         43.90654        52.40116        -0.59683
C         45.08846        54.52447        -0.04900
C         43.86461        55.26438        -0.34209
C         43.81788        56.67889        -0.20006
C         47.66609        18.75458        -1.58483
C         46.47463        18.07240        -1.54352
C         47.70819        20.17685        -1.52394
C         46.47633        20.89116        -1.47141
C         47.71433        23.03189        -1.46656
C         46.48329        22.32225        -1.46667
C         47.72420        24.46565        -1.48818
C         46.50296        25.19050        -1.52761
C         47.74549        27.30437        -1.74548
C         46.53913        26.61192        -1.66107
C         47.72043        28.75752        -2.20013
C         46.51321        29.52846        -1.66112
C         47.77749        31.65219        -2.07078
C         46.51340        30.93613        -1.65888
C         47.77867        33.12129        -1.73209
C         46.53112        33.83876        -1.72908
C         47.74419        36.00845        -1.76054
C         46.49590        35.25228        -1.66552
C         47.72399        37.43561        -1.41992
C         46.52275        38.11183        -1.28027
C         47.70165        40.27312        -0.88882
C         46.51346        39.55562        -1.04357
C         47.71270        41.69775        -0.77874
C         46.50716        42.41023        -0.90672
C         47.73417        44.56094        -0.62003
C         46.50973        43.85756        -0.85657
C         47.72692        45.98349        -0.55166
C         46.50030        46.69486        -0.72157
C         47.64194        48.84642        -0.33817
C         46.46989        48.14830        -0.63869
C         47.67849        50.35716        -0.24198
C         46.26585        50.87847         0.07060
C         47.33755        53.01287         0.82181
C         46.25227        52.38062         0.20043
C         47.33553        54.41842         0.90632
C         46.24832        55.15596         0.45345
C         50.20410        20.20801        -1.43865
C         48.95111        20.89229        -1.47731
C         50.18576        23.02969        -1.30690
C         48.95222        22.31356        -1.42880
C         50.18624        24.45319        -1.28789
C         48.95685        25.18045        -1.44219
C         50.20068        27.32003        -1.35213
C         48.96633        26.59852        -1.54628
C         50.21297        28.72592        -1.37290
C         49.11539        29.48761        -2.08707
C         50.16235        31.59268        -1.21501
C         49.02175        30.92704        -1.63304
C         50.18547        33.04354        -1.12310
C         48.98982        33.76302        -1.46541
C         50.27173        35.90964        -1.11414
C         49.07586        35.22097        -1.58787
C         50.30754        37.40455        -1.30980
C         48.98006        38.05822        -0.86204
C         50.11276        40.20864        -0.19342
C         49.03191        39.58581        -1.07809
C         50.17029        41.70800        -0.39701
C         48.96345        42.41388        -0.56957
C         50.18864        44.54394        -0.23194
C         48.96567        43.83954        -0.48409
C         50.16496        45.98739        -0.14026
C         48.97631        46.67840        -0.33686
C         50.12849        48.93107         0.21764
C         48.94015        48.16160        -0.30797
C         49.88822        50.22821         0.91879
C         48.69200        50.87115         0.76143
C         49.60364        52.83980         2.00535
C         48.36366        52.14082         1.52776
C         51.38575        20.88554        -1.29535
C         52.63288        23.01526        -0.96721
C         51.42193        22.31238        -1.19661
C         52.62260        24.44010        -0.86844
C         51.40317        25.16200        -1.08985
C         52.60488        27.29102        -0.80153
C         51.40039        26.58831        -1.06328
C         52.59185        28.71534        -0.71757
C         51.38986        29.43756        -1.00567
C         52.56425        31.56747        -0.56157
C         51.38970        30.86748        -0.93018
C         52.57205        33.00533        -0.47418
C         51.36739        33.73211        -0.77131
C         52.61934        35.87821        -0.37310
C         51.39710        35.18631        -0.73647
C         52.64240        37.32128        -0.31543
C         51.46143        38.07280        -0.59691
C         52.59810        40.12618         0.02418
C         51.41607        39.44690        -0.33288
C         52.61253        41.59417         0.01634
C         51.37237        42.39837        -0.16449
C         52.72226        44.52241         0.23140
C         51.39597        43.80813        -0.08512
C         52.48629        45.90448         0.81150
C         51.49493        46.73070         0.01131
C         52.27390        48.69597         1.61972
C         51.37916        48.16656         0.54256
C         51.96515        49.98999         2.27293
C         50.89535        50.76128         1.83548
C         50.73648        52.14713         2.24365
C         55.04563        22.95739        -0.51999
C         53.90138        22.32161        -0.84614
C         55.07904        24.41599        -0.16494
C         53.81959        25.15245        -0.59131
C         55.03849        27.28997        -0.34568
C         53.82054        26.55965        -0.59399
C         55.00277        28.69577        -0.17710
C         53.78281        29.42220        -0.38406
C         54.97346        31.54157         0.04387
C         53.77489        30.84266        -0.29445
C         54.96760        32.96627         0.15310
C         53.75968        33.69600        -0.11530
C         54.97601        35.81587         0.37228
C         53.77669        35.13797        -0.03966
C         54.99828        37.24362         0.47821
C         53.81197        37.99495         0.12967
C         54.92298        40.09132         0.86485
C         53.79924        39.41774         0.26028
C         54.79391        41.37350         1.37365
C         53.74366        42.25177         0.80434
C         53.92065        44.16352         2.37903
C         53.48442        43.64541         1.19205
C         54.14916        45.55052         2.61049
C         53.28765        46.42025         1.84296
C         54.06508        48.25134         3.29654
C         53.22979        47.78729         2.27767
C         53.86274        49.60014         3.77882
C         52.86091        50.40702         3.31521
C         57.63319        24.47930        -0.50123
C         56.30616        25.15633        -0.72945
C         57.41750        27.24153         0.19515
C         56.27436        26.58819        -0.23623
C         57.41257        28.66430         0.35271
C         56.20276        29.39475         0.14227
C         57.39076        31.49848         0.60122
C         56.18747        30.81460         0.26386
C         57.37615        32.92000         0.74891
C         56.16350        33.65069         0.51938
C         57.35034        35.75635         1.06920
C         56.16170        35.07752         0.65660
C         57.34254        37.17745         1.23789
C         56.16702        37.90258         0.91604
C         57.29182        39.99191         1.78983
C         56.26217        39.40461         0.84927
C         57.13391        41.30017         2.30703
C         55.84596        41.92273         2.20727
C         56.63541        43.86722         3.53081
C         55.61677        43.01114         3.03458
C         56.35737        45.23993         3.89396
C         55.18746        46.02242         3.48138
C         56.15304        47.98958         4.62267
C         55.13252        47.41532         3.81895
C         58.68969        25.08071         0.05504
C         59.89141        27.24651         0.51915
C         58.61925        26.45448         0.66516
C         59.87153        28.59688         0.58469
C         58.63050        29.35194         0.60841
C         59.79105        31.48622         1.11640
C         58.61200        30.76736         0.77028
C         59.76626        32.84951         1.28981
C         58.57344        33.60037         1.10975
C         59.71911        35.73586         1.67965
C         58.55979        35.03010         1.29313
C         59.69234        37.10779         1.90168
C         58.51949        37.85254         1.71355
C         59.47769        39.90432         2.83851
C         58.45332        39.26333         2.08712
C         59.34104        41.20142         3.30235
C         58.14674        41.93653         3.08866
C         58.95399        44.02059         4.26641
C         57.93334        43.27787         3.61208
C         58.67937        45.27186         4.76928
C         57.42217        45.91590         4.55892
C         57.27019        47.26826         4.97423
O         43.79434        27.05660         0.19412
O         27.70433        45.24920        -1.88667
O         54.29707        43.28136         3.40032
O         39.42148        30.57906         0.71203
O         53.77020        42.13128        -0.66719
O         37.44493        32.03274        -2.17767
O         52.58052        48.91868         0.16061
O         48.59752        35.68724        -2.91935
O         40.96044        33.32765        -2.99301
O         39.45163        24.94570        -2.21093
O         29.66184        37.64541        -1.29083
O         34.69506        43.94330        -2.82209
O         49.89493        48.88759        -1.23123
O         41.64986        47.43776        -2.92982
O         38.90533        51.93998        -0.06972
O         29.41042        47.46917         0.64654
O         36.40701        35.52089         1.04286
O         32.00629        48.32894        -2.95402
O         35.15661        40.23216         1.13427
O         32.89524        36.61304         1.50873
O         35.27332        31.78158         1.59891
H         35.88383        32.47125         1.93778
O         56.78056        39.67762        -0.51262
H         56.54099        40.60186        -0.74081
O         26.14830        32.25389         3.97664
H         25.34742        32.72012         4.30168
O         56.10399        25.20074        -2.16883
H         56.83978        25.71281        -2.56392
O         32.65452        27.06306        -0.95601
H         31.79630        27.50647        -1.13010
O         44.94388        27.31107        -3.28596
H         45.71406        27.74012        -3.73837
O         37.88470        53.16801        -3.39469
H         37.10826        53.65757        -3.74215
O         31.20930        23.31054         3.92849
H         30.48120        23.83047         4.33093
O         32.78870        40.86615        -2.21781
H         32.79828        41.54394        -2.92683
O         45.84617        50.29991         1.32999
H         46.33438        50.76793         2.05569
O         49.65603        29.58583        -3.45414
H         49.57348        28.69516        -3.86064
O         23.77895        39.48323        -0.94116
H         23.72719        40.40401        -1.27524
O         38.59654        34.14767        -3.10233
H         38.38691        33.28257        -3.52012
O         47.40300        28.68682        -3.63241
H         47.41409        29.62895        -3.94603
O         32.81240        33.06625        -1.93613
H         32.49051        33.96056        -2.22415
O         50.51619        37.60370        -2.72951
H         49.91004        36.97967        -3.20034
O         48.88361        37.74989         0.56814
H         47.99299        38.02659         0.87454
O         32.76772        41.06368         1.42323
H         33.65151        41.04059         1.86216
O         35.60325        29.02952         2.05917
H         35.49877        29.99821         2.23650
O         28.59941        33.65619         3.21953
H         27.89259        33.21913         3.75796
O         55.17386        24.51013         1.28403
H         54.41758        24.02052         1.66885
O         34.29378        30.75761        -1.78019
H         33.93544        31.58036        -2.19247
O         28.60419        29.36818         0.05834
H         28.96992        29.96362        -0.64111
O         53.48089        44.67959        -0.99166
H         53.01624        45.37685        -1.51973
O         28.44435        36.45665         2.68594
H         28.61072        35.58242         3.12494
O         49.41976        39.88654        -2.43344
H         48.81560        39.41985        -3.04692
O         30.38288        31.29710         2.69630
H         29.97107        30.79369         3.43847
O         52.00055        46.86597        -1.35529
H         52.57641        47.66609        -1.35589
O         29.79538        31.50846        -0.89529
H         30.41694        31.83805        -1.58062
O         48.12850        50.89235        -1.52760
H         48.93521        50.36485        -1.76793
O         38.64713        20.80833        -2.41127
H         39.26642        21.38474        -2.90878
O         31.65115        35.48893        -1.74548
H         30.85159        36.01598        -1.98018
O         29.03650        29.25756         3.68229
H         28.38885        28.96020         4.35575
O         44.24429        43.84813        -3.04193
H         44.18675        44.78315        -3.33621
O         45.64511        50.67835        -2.32598
H         46.63374        50.71046        -2.38085
O         47.67453        51.70703         2.77425
H         48.33346        51.22442         3.31817
O         58.43834        26.24776         2.10812
H         58.31432        27.13113         2.51500
O         49.75514        40.09584         1.21457
H         49.74646        39.13397         1.43675
O         47.75917        31.56230        -3.55696
H         48.67722        31.72476        -3.86792
O         40.55519        53.21483        -3.12209
H         39.68570        53.39285        -3.55710
H         22.62218        27.01201         3.34262
H         22.51845        29.43357         3.01752
H         22.44689        31.28700         2.63694
H         22.35476        33.63933         2.12526
H         22.25302        35.46111         1.51867
H         22.18018        37.84489         0.99710
H         22.31537        39.82938         1.62339
H         22.37771        42.25234         1.65396
H         22.22822        44.13088         1.15085
H         22.23666        46.57831         1.01805
H         25.93246        23.62955         3.08836
H         23.86003        24.91499         3.39026
H         25.46301        49.95539         0.05015
H         23.42080        48.70478         0.64286
H         27.49244        22.65524         2.44245
H         26.94761        50.80551        -1.08079
H         29.57311        21.42394         2.31471
H         29.00534        51.97481        -1.64304
H         33.29567        19.26411         1.79408
H         31.34457        20.52684         2.52784
H         32.76235        54.16654        -1.70777
H         30.66478        52.94326        -1.72183
H         34.82846        18.29849         1.24496
H         34.38773        55.11442        -1.53245
H         36.81047        17.06416         0.56763
H         36.45392        56.33786        -1.24591
H         40.28868        14.86085        -0.81341
H         38.20278        16.09902        -0.38487
H         40.17666        58.48643        -0.57038
H         38.08701        57.29615        -1.05574
H         42.73784        14.83554        -1.18169
H         42.62119        58.46902        -0.19969
H         44.86019        16.03156        -1.46462
H         44.73256        57.23510         0.04409
H         48.59715        18.17836        -1.66170
H         46.49751        16.97581        -1.58687
H         48.18640        54.95324         1.34968
H         46.28628        56.24878         0.55355
H         50.23284        19.11241        -1.49974
H         49.54044        53.89341         2.31061
H         52.31780        20.30810        -1.24675
H         51.59796        52.66025         2.69424
H         55.97644        22.38032        -0.41921
H         53.93723        21.24042        -1.03825
H         54.49346        49.98096         4.59266
H         52.72013        51.39414         3.77697
H         57.74797        23.46670        -0.91958
H         56.09557        49.04544         4.91662
H         59.64523        24.53987         0.14606
H         60.84969        26.70671         0.48431
H         60.82352        29.14621         0.56242
H         60.73606        30.94954         1.27127
H         60.69883        33.35598         1.56927
H         60.66661        35.20512         1.83720
H         60.61558        37.60431         2.22906
H         60.40203        39.36000         3.07588
H         60.16158        41.64419         3.88415
H         59.95986        43.59563         4.38574
H         59.46633        45.83429         5.29302
H         58.08435        47.74789         5.53611
