         244
 CSIRO Nanostructure Databank - Neutral Graphene Oxide Data Set
C          1.44863         2.07096        -1.35934
C          1.38062         3.44553        -1.06648
C          2.65839         1.40682        -1.31045
C          2.51649         4.16885        -0.67933
C          1.23444         6.35315        -0.60482
C          1.16862         7.71556        -0.50726
C          2.46266         5.60682        -0.43628
C          2.31081         8.51580        -0.15472
C          1.14622        10.68648        -0.50964
C          1.19609        12.04587        -0.64681
C          2.29834         9.91221        -0.13241
C          2.41780        12.79882        -0.44946
C          1.48092        15.02006         0.28851
C          1.48588        16.35875         0.33344
C          2.36776        14.29099        -0.71297
C          2.36257        17.16089        -0.60402
C          2.49592        18.60296        -0.17370
C          3.83833         2.09955        -0.91728
C          3.76750         3.48228        -0.54634
C          5.09282         1.46619        -0.97081
C          4.95126         4.14190        -0.09705
C          3.62065         6.28535        -0.08223
C          3.54068         7.74607         0.18062
C          4.88970         5.59223         0.09307
C          4.82108         8.51075         0.26726
C          3.52748        10.68739         0.32865
C          3.55545        12.15365        -0.07610
C          4.80421         9.96806        -0.15602
C          4.82140        12.92044         0.23462
C          3.72765        14.97707        -0.67393
C          3.71006        16.46145        -0.82352
C          4.87930        14.31354        -0.35603
C          4.98712        17.21928        -0.62305
C          3.66374        19.26543        -0.02386
C          4.95806        18.61976        -0.12901
C          6.28748         2.09098        -0.55257
C          6.19345         3.44406        -0.00013
C          7.49154         1.38357        -0.87252
C          7.35965         4.16931         0.45123
C          6.05962         6.30794         0.30033
C          6.09618         7.76335         0.07769
C          7.27266         5.63037         0.85494
C          7.38543         8.50154         0.18613
C          6.05632        10.70696         0.30835
C          6.07639        12.13370         0.01010
C          7.34688         9.97421         0.47041
C          7.34442        12.79600        -0.41834
C          6.16878        14.97895        -0.29191
C          6.30910        16.47435        -0.53745
C          7.33759        14.27865        -0.09853
C          7.25866        17.06753         0.50283
C          6.12288        19.26662         0.21098
C          7.37687        18.56439         0.34062
C          8.74672         1.64008        -0.25869
C          8.55598         3.56519         0.78484
C         10.03000         1.51772        -0.74240
C          9.83436         4.22215         0.89594
C          8.57715         6.40850         0.76696
C          8.60424         7.75034         0.56878
C          9.85437         5.71348         1.23645
C          9.81680         8.57397         0.96050
C          8.62324        10.72766         0.31384
C          8.60365        12.07026         0.00542
C          9.84824         9.99719         0.45942
C          9.88283        12.84975        -0.17061
C          8.57881        14.98238         0.22153
C          8.57634        16.32352         0.46777
C          9.80374        14.17583         0.60362
C          9.79330        17.02146         1.02686
C          8.59228        19.19464         0.44719
C          9.83351        18.48906         0.63908
C         11.22296         2.30939        -0.23567
C         10.99768         3.53039         0.65874
C         12.40873         1.45907         0.20267
C         12.27190         4.22414         0.99920
C         11.04743         6.36198         0.51433
C         11.11041         7.84887         0.70057
C         12.35214         5.67971         0.81090
C         12.29688         8.51980         0.65637
C         11.08513        10.67193         0.38454
C         11.12369        12.08266         0.19745
C         12.33033         9.96107         0.53664
C         12.33711        12.77783         0.28069
C         11.09577        14.95449         0.49639
C         11.08282        16.30051         0.69831
C         12.34589        14.21830         0.33916
C         12.36518        17.05352         0.95830
C         11.03103        19.14742         0.46493
C         12.31280        18.50158         0.51918
C         13.55666         2.02724         0.68277
C         13.55668         3.46424         1.07225
C         14.82879         1.34548         0.72638
C         14.81352         4.22110         0.96324
C         13.55280         6.32842         0.76438
C         13.60322         7.82055         0.95972
C         14.81629         5.59945         0.80796
C         14.80229         8.50263         0.37121
C         13.55709        10.62426         0.38670
C         13.58048        12.04996         0.29197
C         14.79719         9.87005         0.22426
C         14.81415        12.72628         0.15945
C         13.56385        14.90079         0.30774
C         13.58521        16.33704         0.43857
C         14.81226        14.17352         0.14669
C         14.72838        17.05142         0.15568
C         13.48346        19.18229         0.27535
C         14.75594        18.50191         0.19552
C         16.02954         2.01499         0.88351
C         16.07525         3.47701         1.27984
C         17.27964         1.33924         0.77797
C         17.32175         4.21169         0.84969
C         16.05009         6.31091         0.56739
C         15.98845         7.68842        -0.05064
C         17.27761         5.63208         0.60028
C         17.28489         8.46703        -0.05153
C         16.02213        10.58289        -0.10567
C         16.01913        11.98003        -0.06973
C         17.27054         9.85731        -0.26569
C         17.32291        12.67609        -0.10562
C         15.99186        14.87488        -0.04984
C         15.94083        16.32890        -0.26469
C         17.29163        14.19299        -0.04143
C         17.23652        17.09753        -0.34978
C         15.96111        19.19297         0.12634
C         17.22836        18.53591        -0.00625
C         18.48959         2.03091         0.78328
C         18.51040         3.48482         0.75617
C         19.74113         1.33013         0.69845
C         19.76350         4.16333         0.58618
C         18.50195         6.35457         0.34594
C         18.51063         7.72726         0.01986
C         19.76968         5.63288         0.53787
C         19.72589         8.38248        -0.43041
C         18.48452        10.56725        -0.66790
C         18.51289        11.97932        -0.66880
C         19.64056         9.70795        -0.96286
C         19.65052        12.83676        -1.00869
C         18.51536        14.95599        -0.35481
C         18.50743        16.34837        -0.30331
C         19.71318        14.23951        -0.66082
C         19.72681        17.08661        -0.28413
C         18.44275        19.18396         0.12775
C         19.69826        18.49992        -0.04887
C         20.92110         2.00425         0.54740
C         20.95175         3.43914         0.45773
C         22.17554         4.10944         0.08622
C         21.07612         6.32238         0.09935
C         20.94059         7.64511        -0.55374
C         22.21987         5.43962        -0.18488
C         22.00102         8.15116        -1.31940
C         20.69859        10.10965        -1.80389
C         20.72142        12.39016        -1.80921
C         21.86361         9.36265        -1.98853
C         21.91854        13.10377        -1.97240
C         20.92177        14.98799        -0.82614
C         20.95611        16.40106        -0.48569
C         22.04651        14.36704        -1.41419
C         22.15607        17.14557        -0.41363
C         20.91888        19.19319         0.02302
C         22.12923        18.51341        -0.15115
O          6.84135         8.16765        -1.15370
O          4.39899        17.05130        -1.98202
O          4.14641         8.15134         1.50528
O         20.66472         6.29382         1.49950
O         17.54251        13.37427         1.17654
O          8.60903         2.19491         1.03371
O         16.46898        16.77777        -1.57336
O          6.55913        10.32015         1.66348
O         12.79971         3.76917         2.30664
O         20.55575        11.24898        -2.60676
O         10.78621         6.12687        -0.91341
H         11.50695         6.55329        -1.42426
O          3.54324        10.70916         1.78451
H          3.68743         9.77454         2.08922
O         13.75390         7.98724         2.41904
H         13.03196         7.47834         2.84865
O         10.01426        13.23066        -1.58524
H         10.32148        12.43980        -2.07695
O          4.82252        13.13288         1.70089
H          4.50063        12.28260         2.10029
O          9.64855        16.95845         2.49740
H          9.65248        15.99711         2.72407
O          1.79287        14.45179        -2.02919
H          1.62337        15.41941        -2.17022
O         16.13094         3.45264         2.75775
H         15.99800         4.37087         3.07634
O          9.64637        13.87715         2.02323
H          8.85940        13.29795         2.12466
O          4.79341         9.99061        -1.59562
H          5.57439         9.47274        -1.90771
O         10.00169         5.90296         2.64962
H          9.11211         5.79946         3.05529
O          1.70160        17.19197        -1.90948
H          2.38603        17.50336        -2.54528
O          7.05991         5.57608         2.33039
H          6.18191         5.16535         2.48728
O          6.69165        16.83227         1.81955
H          7.38489        17.06768         2.47619
O         11.72897         2.98453        -1.45672
H         11.04888         3.63545        -1.73793
O         15.74469         7.40398        -1.50151
H         15.84596         8.25502        -1.98086
O          7.35765        12.74096        -1.90207
H          8.19497        13.19311        -2.17369
O          6.96921        16.62770        -1.81572
H          6.26799        16.55084        -2.50258
O         12.49133        17.08723         2.42313
H         11.59414        17.29729         2.77878
O          9.70665         8.69235         2.42524
H         10.47969         9.20760         2.74010
H          0.53526         1.53759        -1.65717
H          0.40772         3.94563        -1.15818
H          2.72661         0.34359        -1.58144
H          0.31483         5.81109        -0.86125
H          0.20474         8.20897        -0.69330
H          0.20152        10.16880        -0.72992
H          0.29923        12.59658        -0.96302
H          0.82788        14.43943         0.95829
H          0.83303        16.90266         1.03336
H          1.54878        19.14904        -0.04497
H          5.14484         0.43593        -1.35401
H          3.65099        20.32857         0.26325
H          7.42502         0.61165        -1.65478
H          6.08945        20.33958         0.45994
H         10.17549         1.05793        -1.73191
H          8.64467        20.28740         0.31268
H         12.41647         0.40088        -0.10200
H         11.00964        20.21626         0.19536
H         14.84749         0.26531         0.50899
H         13.45633        20.26595         0.08008
H         17.28454         0.24803         0.63149
H         15.95283        20.28968         0.22024
H         19.73177         0.23145         0.74536
H         18.46300        20.25963         0.35994
H         21.86928         1.45302         0.46651
H         23.06636         3.48852        -0.09101
H         23.14157         5.86775        -0.60275
H         22.93073         7.58024        -1.43472
H         22.65023         9.73424        -2.65683
H         22.72680        12.66818        -2.57382
H         22.98319        14.92392        -1.54769
H         23.12647        16.64765        -0.54463
H         20.91852        20.27525         0.21700
H         23.07535        19.06896        -0.08592
