         204
 CSIRO Nanostructure Databank - Neutral Graphene Oxide Data Set
C        -11.09389         0.71435         0.47957
C         -9.89876         1.45035         0.14416
C         -8.68852         0.72136        -0.06826
C         -7.46658         1.43728        -0.29622
C         -6.24620         0.73537        -0.52544
C         -5.01997         1.42263        -0.47704
C         -3.72552         0.72737        -0.74335
C         -2.46822         1.35205        -0.22186
C         -1.25745         0.71452        -0.27129
C         -0.02076         1.39085         0.12264
C          1.19690         0.67941        -0.00087
C          2.49371         1.30718         0.28813
C          3.74531         0.68708        -0.13144
C          4.94870         1.39501        -0.03560
C          6.20751         0.69150        -0.15939
C          7.43964         1.41331        -0.07286
C          8.67750         0.69310        -0.00565
C          9.90717         1.42159         0.09016
C         11.13676         0.66832         0.12808
C         -9.90514         2.85250         0.06511
C         -8.70308         3.58784        -0.12815
C         -7.47143         2.85522        -0.26578
C         -6.23389         3.55928        -0.29459
C         -5.02285         2.81720        -0.27341
C         -3.80049         3.52117         0.14700
C         -2.51662         2.74675         0.28464
C         -1.25476         3.52081         0.38923
C         -0.04750         2.76952         0.48917
C          1.21215         3.49708         0.75509
C          2.51921         2.78326         0.59495
C          3.74861         3.53788         0.28473
C          4.94152         2.82241         0.08981
C          6.17213         3.56825        -0.33160
C          7.44584         2.82780        -0.04094
C          8.66421         3.55523         0.08571
C          9.88710         2.82229         0.14844
C         -8.67182         4.99581        -0.15929
C         -7.44785         5.72088        -0.30761
C         -6.20478         4.98285        -0.30558
C         -4.94949         5.68749        -0.26350
C         -3.74475         4.98142         0.01314
C         -2.51400         5.65791         0.16684
C         -1.29801         4.92542         0.41305
C         -0.10722         5.74444         0.87030
C          1.21980         4.98711         0.80023
C          2.39178         5.65540         0.09036
C          3.71216         4.94804         0.23591
C          4.93780         5.68798         0.20638
C          6.17065         5.00548         0.10113
C          7.40860         5.70686         0.19185
C          8.63458         4.97836         0.15139
C         -7.41996         7.11298        -0.43280
C         -6.15977         7.81664        -0.85019
C         -4.91582         7.09710        -0.38908
C         -3.69918         7.79349        -0.21341
C         -2.49095         7.09038         0.04564
C         -1.24663         7.81876         0.09521
C         -0.03649         7.13780         0.29369
C          1.20255         7.83835         0.27042
C          2.43994         7.14069         0.31554
C          3.66507         7.82789         0.34038
C          4.91603         7.11645         0.31521
C          6.15112         7.82528         0.36310
C          7.36981         7.12109         0.33644
C         -6.12861         9.28555        -0.52767
C         -4.96631         9.93781        -0.32773
C         -3.68626         9.24361        -0.26938
C         -2.49392         9.93386        -0.20058
C         -1.23917         9.25119        -0.06343
C         -0.02687         9.95177         0.01473
C          1.20753         9.27451         0.16831
C          2.45050         9.95894         0.23734
C          3.66117         9.26846         0.34980
C          4.92951         9.95204         0.41713
C          6.11104         9.26768         0.43689
C        -11.06353        -0.63591         0.67713
C         -9.84818        -1.39250         0.50901
C         -8.66457        -0.70068         0.07636
C         -7.48152        -1.43503        -0.18747
C         -6.31129        -0.72421        -0.76465
C         -5.06496        -1.49703        -1.13691
C         -3.73380        -0.72619        -1.17769
C         -2.41889        -1.43385        -1.04073
C         -1.14087        -0.61358        -0.98201
C          0.04440        -1.44811        -0.56368
C          1.24447        -0.72995        -0.26109
C          2.46885        -1.41651        -0.22646
C          3.74087        -0.73212        -0.61308
C          4.99477        -1.46398        -0.21176
C          6.21169        -0.73758        -0.15957
C          7.45528        -1.44534        -0.08538
C          8.68273        -0.72809        -0.03246
C          9.92056        -1.45670         0.00680
C         11.14274        -0.69958         0.07891
C         -9.79855        -2.76797         0.75101
C         -8.59834        -3.50164         0.57368
C         -7.43222        -2.82045         0.07864
C         -6.22838        -3.56747        -0.15069
C         -5.10691        -2.95999        -0.79249
C         -4.08770        -3.80800        -1.20572
C         -2.24289        -2.69679        -1.51785
C         -1.06942        -3.55156        -1.31384
C          0.11193        -2.84160        -0.79032
C          1.25730        -3.58028        -0.45318
C          2.44221        -2.85983         0.14104
C          3.73931        -3.59432        -0.03558
C          4.98505        -2.86802        -0.04272
C          6.22812        -3.55762         0.04717
C          7.45382        -2.86947        -0.04357
C          8.70345        -3.60151        -0.03608
C          9.91124        -2.86169        -0.02562
C         -8.53072        -4.89200         0.83948
C         -7.35228        -5.62556         0.63622
C         -6.17567        -4.96205         0.13210
C         -4.97085        -5.70800        -0.05156
C         -3.82516        -5.10276        -0.66379
C         -2.54432        -5.74918        -0.67453
C         -1.23852        -5.07061        -0.98922
C          0.00681        -5.72074        -0.50646
C          1.23236        -5.00433        -0.41333
C          2.46017        -5.70594        -0.14971
C          3.69144        -4.98434        -0.00921
C          4.92370        -5.74769         0.25512
C          6.24570        -5.00437         0.29368
C          7.49159        -5.75875         0.04311
C          8.68420        -5.02430        -0.07126
C         -7.29978        -7.03407         0.87866
C         -6.12956        -7.75957         0.70880
C         -4.91728        -7.09036         0.29428
C         -3.69453        -7.77891         0.20547
C         -2.48130        -7.08609        -0.15891
C         -1.24084        -7.77743        -0.01905
C         -0.00448        -7.10732        -0.20010
C          1.23765        -7.82357        -0.08242
C          2.46372        -7.13035        -0.10579
C          3.71203        -7.86308        -0.10701
C          4.93560        -7.19213        -0.00258
C          6.18991        -7.87770        -0.06289
C          7.41355        -7.17032        -0.04195
C         -6.08451        -9.19098         0.89880
C         -4.92114        -9.88046         0.75553
C         -3.66437        -9.20508         0.49262
C         -2.47530        -9.89113         0.53899
C         -1.17981        -9.14764         0.61143
C          0.02268        -9.92984         0.16873
C          1.22391        -9.27434        -0.04207
C          2.46853        -9.97568        -0.20058
C          3.68746        -9.30092        -0.21386
C          4.95496        -9.98608        -0.27733
C          6.14384        -9.30993        -0.21219
O         -6.14915         7.74291        -2.33597
H         -6.19216         6.79225        -2.57556
O          2.65540         1.82356         1.67675
O         -3.26591        -3.32804        -2.21826
O         -0.38196         6.00113         2.28585
H          0.00237         5.23878         2.78307
O         -0.89536        -0.24096        -2.38514
H         -1.75391         0.10791        -2.72992
O         -3.65543         0.33617        -2.18324
O          5.55592        -5.38698         1.53944
O          6.09860         3.62052        -1.83254
H          6.90448         4.09416        -2.13311
O         -6.00779        -1.10634        -2.17047
O          3.75262        -0.70636        -2.10071
H          4.50875        -0.14567        -2.37834
O         -0.97247        -8.90225         2.07708
H         -1.76057        -8.41198         2.39637
O          2.19142        -2.88140         1.61332
H          2.33573        -3.80447         1.91571
O          1.40876         4.26391         2.03785
O          2.02144         5.48171        -1.33197
H          2.73222         5.88319        -1.87638
O         -0.94912        -4.55878        -2.34927
O         -3.36503         2.97060         1.46839
H         12.09724        -1.24596         0.10684
H         12.08641         1.21970         0.19569
H         10.83568         3.37307         0.23887
H          9.58366         5.52792         0.23445
H          8.31537         7.68033         0.40339
H          7.06418         9.81446         0.48907
H          4.92895        11.05162         0.45068
H          2.45874        11.05821         0.18418
H         -0.03316        11.05056        -0.04459
H         -2.49549        11.03354        -0.24505
H         -4.96160        11.02775        -0.17178
H         -7.07933         9.83905        -0.55672
H         -8.36721         7.67308        -0.45279
H         -9.61526         5.55753        -0.08995
H        -10.84962         3.39719         0.21349
H        -12.03147         1.27307         0.61610
H        -11.97722        -1.17326         0.97096
H        -10.70421        -3.29379         1.08839
H         -9.42796        -5.40775         1.21290
H         -8.21638        -7.54986         1.20234
H         -7.01698        -9.71642         1.15201
H         -4.89898       -10.97020         0.90359
H         -2.47532       -10.97017         0.75749
H         -0.01579       -11.02952         0.18716
H          2.45514       -11.07573        -0.23681
H          4.95197       -11.08209        -0.37279
H          7.09315        -9.86352        -0.26318
H          8.34841        -7.74157        -0.15193
H          9.63791        -5.56316        -0.18142
H         10.86908        -3.40386        -0.01290
