         429
 CSIRO Nanostructure Databank - Neutral Graphene Oxide Data Set
C          1.54954         3.70766         2.68047
C          0.34353         4.33885         2.55635
C          1.41453         6.48870         2.00265
C          0.26246         5.73827         2.32034
C          1.33903         7.88233         1.60250
C          0.14825         8.63946         1.73699
C          1.23693        10.63179         0.83203
C          0.10220         9.97468         1.38896
C          1.20973        12.03771         0.51104
C         -0.01197        12.78541         0.41802
C          1.24167        14.92603         0.49861
C         -0.02713        14.14296         0.28154
C          1.19338        16.38464         0.07464
C          0.03671        17.14780         0.31623
C          1.10311        19.15884        -0.52935
C         -0.02705        18.49844        -0.04843
C          1.08950        20.55710        -1.11027
C         -0.15704        21.35360        -0.85709
C          1.11777        23.40147        -0.42554
C         -0.12830        22.68288        -0.62842
C          1.12223        24.64261         0.19949
C         -0.02914        25.53388         0.20433
C          1.22915        27.64938        -0.35699
C          0.03212        26.86707        -0.07349
C          1.24720        29.05567        -0.04412
C          0.06263        29.74499         0.34512
C          1.25040        31.86533         0.53038
C          0.05365        31.10143         0.58455
C          1.26459        33.29946         0.83020
C          0.13058        33.96073         1.35000
C          1.30262        36.09512         1.39697
C          0.15222        35.31773         1.65205
C          1.35941        37.50871         1.71373
C          4.03076         3.73562         2.32096
C          2.81579         4.51516         2.71758
C          3.81819         6.46318         1.44279
C          2.68109         5.83546         2.00036
C          3.73576         7.79965         0.95759
C          2.49541         8.52647         1.07165
C          3.55485        10.46706        -0.14411
C          2.42619         9.88049         0.66040
C          3.58786        11.96920        -0.10936
C          2.44184        12.70630         0.16125
C          3.57561        14.80679        -0.45325
C          2.43725        14.15207        -0.01680
C          3.51597        16.24162        -0.91328
C          2.33813        17.03390        -0.40821
C          3.55760        19.16851        -0.80906
C          2.32892        18.44415        -0.62604
C          3.59747        20.59427        -0.87090
C          2.37157        21.32196        -0.83439
C          3.58148        23.44442        -1.07172
C          2.37340        22.72565        -0.75837
C          3.58834        24.84104        -1.72628
C          2.33873        25.75539        -1.67049
C          3.59578        27.80253        -0.98382
C          2.38892        27.06211        -0.91670
C          3.67220        29.15184        -0.57332
C          2.46181        29.80658        -0.13426
C          3.71270        31.93422         0.29536
C          2.44181        31.19372         0.19848
C          3.68882        33.40545         0.26504
C          2.44254        34.06744         0.59016
C          3.59516        36.29039         0.46577
C          2.43075        35.46513         0.82738
C          3.69261        37.67601         0.97247
C          2.49247        38.24838         1.53792
C          6.36551         3.63148         1.60076
C          5.11472         4.32550         1.71299
C          6.16865         6.33792         0.73853
C          5.05133         5.72535         1.28813
C          6.15500         7.73812         0.45091
C          4.92131         8.46362         0.50481
C          6.10673        10.52758        -0.11253
C          4.89779         9.82705         0.11943
C          6.08923        11.93467        -0.41224
C          4.78291        12.60920        -0.75631
C          6.02631        14.79695        -0.73398
C          4.81030        14.10457        -0.61393
C          6.01155        16.25935        -0.78533
C          4.83621        16.95358        -0.76923
C          6.09875        19.19222        -0.74691
C          4.81601        18.42847        -0.64926
C          6.10423        20.65291        -0.92733
C          4.83300        21.33435        -0.91682
C          6.11475        23.40929        -1.50227
C          4.79501        22.74055        -1.11800
C          6.10603        24.90270        -1.22953
C          4.82081        25.63353        -1.31955
C          6.11180        27.85351        -1.54944
C          4.79956        27.12026        -1.51348
C          6.12825        29.23445        -1.03494
C          4.93932        29.84434        -0.62189
C          6.15098        32.06458        -0.44406
C          4.99932        31.22643        -0.10047
C          6.11565        33.42284        -0.18639
C          4.88125        34.10263         0.10537
C          6.14464        36.33617         0.19764
C          4.88114        35.58226         0.07926
C          6.12524        37.72903         0.49716
C          4.88493        38.36069         0.89449
C          8.75427         3.60430         1.07635
C          7.49868         4.22195         1.03889
C          8.64037         6.31455         0.23123
C          7.35388         5.52079         0.28281
C          8.62082         7.68545         0.14835
C          7.36815         8.41722         0.16395
C          8.61097        10.51559        -0.18077
C          7.36035         9.81870        -0.03222
C          8.55679        11.98863        -0.21797
C          7.27176        12.67296        -0.50728
C          8.52557        14.81768        -0.93994
C          7.25764        14.08019        -0.72114
C          8.55331        16.27613        -0.53704
C          7.30284        16.97364        -1.00765
C          8.62149        19.18257        -0.92857
C          7.34361        18.45689        -1.08628
C          8.59445        20.59110        -0.88742
C          7.33244        21.30303        -0.92555
C          8.63018        23.49740        -0.95926
C          7.30006        22.79768        -0.73105
C          8.65621        24.89451        -1.12817
C          7.40667        25.60600        -1.47408
C          8.67848        27.82019        -1.26573
C          7.42232        27.10530        -1.59662
C          8.63536        29.25525        -1.15611
C          7.39201        29.91893        -1.03623
C          8.66311        32.12673        -0.98271
C          7.34237        31.38588        -0.99364
C          8.65704        33.51879        -0.44341
C          7.37678        34.20364        -0.13870
C          8.56777        36.41260        -0.11178
C          7.36220        35.68329        -0.04998
C          8.57618        37.79033         0.25609
C          7.34929        38.42382         0.55605
C         11.06665         3.44216         0.33498
C          9.91070         4.18257         0.46584
C         11.01539         6.22724        -0.44423
C          9.88065         5.58682         0.05470
C         11.10074         7.67714        -0.40038
C          9.93577         8.42154         0.22775
C         11.08914        10.56334        -0.40422
C          9.84436         9.86607        -0.18971
C         11.10897        11.96545        -0.52401
C          9.85180        12.71429        -0.38718
C         11.08669        14.87547        -0.70110
C          9.83934        14.11589        -0.87728
C         11.06673        16.30061        -0.76720
C          9.84154        17.01052        -0.83979
C         11.07182        19.15765        -0.94334
C          9.83865        18.43651        -0.91706
C         11.04077        20.57607        -0.89211
C          9.83820        21.31055        -0.83547
C         11.06514        23.50279        -0.78140
C          9.84460        22.77290        -0.83501
C         11.06709        24.91317        -0.85997
C          9.86796        25.63766        -1.07965
C         11.12200        27.82433        -0.94507
C          9.87123        27.09957        -1.11083
C         11.14817        29.24951        -0.92517
C          9.89037        29.98329        -1.00262
C         11.11154        32.09210        -0.31471
C          9.90146        31.36101        -0.85621
C         11.15772        33.55587        -0.73578
C          9.86893        34.31000        -0.79579
C         11.13721        36.49023        -0.28767
C          9.82253        35.78961        -0.58214
C         11.05849        37.81684         0.36140
C          9.83393        38.45863         0.47891
C         13.48521         3.37895        -0.01605
C         12.18726         3.89559        -0.54618
C         13.52069         6.15375        -0.94295
C         12.20942         5.41379        -0.80321
C         13.50375         7.67701        -1.17360
C         12.27045         8.37497        -0.63137
C         13.51093        10.55286        -0.80275
C         12.31943         9.83709        -0.58272
C         13.54649        11.99054        -0.75080
C         12.31154        12.70044        -0.64329
C         13.52622        14.85848        -0.55322
C         12.29337        14.14924        -0.62672
C         13.54004        16.29832        -0.62593
C         12.31847        17.01055        -0.75757
C         13.56034        19.11180        -0.99398
C         12.32730        18.43298        -0.89770
C         13.50230        20.53923        -1.48247
C         12.34574        21.27654        -0.80671
C         13.58583        23.49140        -1.03993
C         12.35198        22.76963        -0.71693
C         13.63498        24.88802        -0.67033
C         12.31913        25.66069        -0.61420
C         13.57937        27.81341        -0.84489
C         12.34699        27.12343        -0.81527
C         13.62056        29.23307        -0.84413
C         12.38500        29.94768        -0.81581
C         13.58593        32.10785        -0.54651
C         12.41359        31.39126        -0.62567
C         13.59389        33.55028        -0.30105
C         12.39815        34.29498        -0.40791
C         13.55153        36.31938         0.31471
C         12.37551        35.68294        -0.15277
C         13.48826        37.70468         0.75911
C         12.28266        38.39967         0.80215
C         15.82840         3.47332         0.55268
C         14.66928         4.11893         0.07788
C         15.87381         6.27029        -0.15438
C         14.73424         5.52096        -0.35290
C         15.94176         7.68045        -0.53227
C         14.79506         8.37024        -0.79967
C         16.07950        10.57953        -1.17141
C         14.78073         9.82786        -1.07869
C         16.10131        12.10946        -1.10123
C         14.76880        12.73099        -0.70711
C         15.97048        14.86100        -0.15153
C         14.73657        14.12113        -0.49856
C         16.00838        16.33277        -0.34833
C         14.77987        17.01595        -0.60983
C         16.04148        19.14591        -0.79829
C         14.79040        18.43134        -0.81652
C         16.06474        20.56505        -1.01789
C         14.83852        21.27945        -1.41665
C         16.10579        23.47436        -0.90806
C         14.84979        22.79803        -1.30265
C         16.09652        24.92489        -0.79656
C         14.89861        25.61587        -0.84006
C         16.16164        27.83457        -0.85383
C         14.84709        27.07305        -0.99952
C         16.08925        29.27648        -0.56071
C         14.88142        29.94240        -0.70546
C         16.09181        32.12120        -0.18745
C         14.90681        31.44643        -0.85118
C         16.05262        33.47647         0.06453
C         14.80729        34.22079         0.01041
C         15.98523        36.26119         0.83254
C         14.77162        35.59446         0.37132
C         15.88794        37.64623         1.28801
C         14.68553        38.32197         1.23936
C         18.29364         3.56001         1.19080
C         17.00496         4.22638         0.94768
C         18.34593         6.37987         0.51953
C         17.02796         5.71552         0.58938
C         18.44711         7.70230         0.04234
C         17.27696         8.33915        -0.59703
C         18.59698        10.53422        -0.53341
C         17.36754         9.81899        -0.93674
C         18.62678        12.04881        -0.67528
C         17.28544        12.65857        -0.35153
C         18.53581        14.89466        -0.24908
C         17.25895        14.09566        -0.03949
C         18.43968        16.33449         0.30436
C         17.20422        17.04099        -0.21760
C         18.50932        19.12141        -0.53056
C         17.24633        18.44920        -0.47256
C         18.52240        20.53882        -0.88157
C         17.25484        21.29527        -0.88391
C         18.48556        23.40428        -0.18631
C         17.27271        22.73360        -0.79576
C         18.52739        24.90819        -0.32313
C         17.34872        25.64341        -0.58786
C         18.51955        27.75460        -0.06874
C         17.36099        27.05771        -0.50432
C         18.48883        29.18517         0.12382
C         17.30524        29.95731        -0.14848
C         18.45524        32.01136         0.60761
C         17.29940        31.35548         0.04580
C         18.45352        33.41525         0.84312
C         17.34597        34.24122         0.22568
C         18.47520        36.34149         1.16190
C         17.19143        35.60367         0.85608
C         18.26378        37.63907         1.90600
C         17.05335        38.27915         1.84519
C         19.44217         4.27286         1.27029
C         20.73303         6.37406         0.97819
C         19.49796         5.69039         0.96438
C         20.81450         7.70063         0.58898
C         19.68069         8.39714         0.10429
C         20.98509        10.55943         0.02608
C         19.73012         9.83297        -0.17978
C         21.01885        11.89807         0.17381
C         19.75727        12.67063         0.14333
C         20.94283        14.96730         0.53385
C         19.72545        14.16042         0.35662
C         20.93686        16.31439         0.31095
C         19.73902        17.05842         0.03580
C         20.98436        19.17553        -0.26454
C         19.74097        18.42420        -0.29583
C         21.04925        20.52041        -0.38493
C         19.87721        21.32190        -0.77129
C         20.96346        23.46020        -0.09598
C         19.81928        22.74770        -0.45250
C         20.92388        24.82906         0.17936
C         19.72418        25.58410         0.02095
C         20.86534        27.71824         0.62957
C         19.71263        27.01705         0.18612
C         20.82498        29.07246         0.86201
C         19.64237        29.83185         0.63948
C         20.69852        31.89026         1.56932
C         19.60553        31.24132         0.94230
C         20.65878        33.23662         1.85296
C         19.54430        34.03709         1.48078
C         20.51724        36.06094         2.54332
C         19.54340        35.46605         1.78250
C         20.48346        37.45630         2.87816
C         19.38626        38.21913         2.59372
O         10.52644        36.51723        -1.62631
O         15.00385        22.10696        -2.62155
O         17.60345         8.80271        -1.95876
O          4.60996        31.35780         1.31576
O         19.37067        13.23442         1.43644
O         12.97227        25.23134         0.63145
O          3.98575        36.14039        -0.94522
O          9.24972        12.59214         0.95408
O         16.49119        14.45073         1.18935
O          1.40857        25.51041        -2.42522
O         12.57276        21.86940         0.50216
O          7.51233        26.25250        -2.78433
O          9.19570        14.41434        -2.17526
O          7.33218        17.62989        -2.31433
O          5.30522        27.66420        -2.76546
O         15.61370        27.51428        -2.17873
O          5.38773        25.28659        -0.01420
O          7.90649        31.99306        -2.21842
O         12.86224         5.55906        -2.12203
O         16.68316         5.28720         1.94444
O         15.39290        10.15727        -2.38854
O         19.32840        20.91523        -2.05889
O         10.52552        33.86044        -2.01420
O          5.57363        18.83832         0.58652
O          8.26425        33.63977         0.95116
O         13.43967         7.92297        -2.60992
H         13.03295         7.12226        -3.01845
O          3.24936        10.10270        -1.57035
H          2.30794        10.33557        -1.72628
O          3.01846         4.85636         4.15846
H          2.21932         5.34821         4.44614
O         17.79494        34.50254        -1.15260
H         18.51213        35.18199        -1.08920
O          1.12594        20.32791        -2.56985
H          1.08637        21.20666        -3.00359
O         18.75004        15.03208        -1.66795
H         18.87913        14.12093        -2.04839
O         13.11209        20.43800        -2.87921
H         13.67671        21.07255        -3.38298
O         16.28355        12.54211        -2.51333
H         15.75932        11.89763        -3.05164
O          7.05374         5.13471        -1.10273
H          6.93322         5.95899        -1.61996
O         10.27513         8.47007         1.66659
H          9.62948         9.06819         2.10054
O          8.44946        16.22468         0.92219
H          8.42328        17.14200         1.26778
O         15.13324        31.67629        -2.29034
H         14.44943        31.17540        -2.78393
O          1.43187        14.98310         1.96083
H          1.43239        14.05817         2.28856
O         18.94408        12.34765        -2.08716
H         18.09884        12.22074        -2.59473
O         19.02984        36.73630        -0.16035
H         18.43993        37.43264        -0.52242
O         11.95318         3.22390        -1.82946
H         12.41426         3.76066        -2.51511
O          2.28553        25.08389         0.75919
H          2.13696        25.92900         1.22891
O          3.29047        16.15593        -2.36775
H          3.98278        15.56836        -2.74154
O         18.33476        16.28388         1.74845
H         17.61407        15.63678         1.96207
O          6.33543        23.20440        -2.90689
H          5.58607        23.62269        -3.39146
O          3.74816        24.55659        -3.14724
H          2.84522        24.57797        -3.54384
O          4.60159        12.38046        -2.21535
H          4.26766        11.45038        -2.30948
O         10.97053        32.11903         1.14083
H         10.97778        31.19436         1.46606
O          6.99925        23.01553         0.67875
H          7.69195        22.57423         1.21329
O         18.28238        23.16355         1.27379
H         18.98391        23.66337         1.74550
H          1.60114         2.62749         2.87988
H         -0.59103         3.76333         2.62921
H         -0.73111         6.20367         2.27882
H         -0.75267         8.17244         2.15787
H         -0.82691        10.53843         1.54993
H         -0.96475        12.23515         0.39742
H         -0.98519        14.66897         0.16471
H         -0.85468        16.67062         0.74679
H         -0.97769        19.03746         0.06818
H         -1.12505        20.84837        -0.98506
H         -1.07520        23.22517        -0.49352
H         -1.02777        25.08340         0.30344
H         -0.92603        27.40617        -0.05918
H         -0.88822        29.20276         0.42195
H         -0.89923        31.58579         0.83550
H         -0.78809        33.39451         1.55464
H         -0.73847        35.79553         2.08439
H          0.46201        37.97551         2.14556
H          4.10170         2.69093         2.66135
H          2.51070        39.30738         1.83537
H          6.45305         2.63683         2.06530
H          4.92678        39.40723         1.23355
H          8.84986         2.60778         1.53484
H          7.35238        39.48247         0.85565
H         11.09946         2.40927         0.71254
H          9.80699        39.48195         0.88368
H         13.51119         2.32113         0.28690
H         12.26766        39.42144         1.21084
H         15.81731         2.38174         0.68901
H         14.63576        39.36342         1.59135
H         18.30004         2.46717         1.31551
H         16.93888        39.27690         2.29664
H         20.39159         3.76317         1.49188
H         21.63562         5.84601         1.31746
H         21.78862         8.20203         0.65026
H         21.92536         9.99403         0.07056
H         21.96926        12.41344         0.37387
H         21.88238        14.46485         0.80667
H         21.90006        16.84093         0.36722
H         21.91009        18.64196        -0.01338
H         22.00677        21.02674        -0.20036
H         21.94658        22.96931        -0.11427
H         21.86965        25.33657         0.40468
H         21.80357        27.18076         0.81704
H         21.73654        29.56691         1.22040
H         21.59356        31.32313         1.85452
H         21.52608        33.69404         2.34597
H         21.34312        35.46952         2.96170
H         21.32494        37.88221         3.44196
H         19.31119        39.25629         2.95215
