         429
 CSIRO Nanostructure Databank - Neutral Graphene Oxide Data Set
C          1.64771         1.86203         1.57164
C          1.60659         3.25831         1.50318
C          2.85458         1.18044         1.46690
C          2.78434         4.01400         1.32665
C          1.55652         6.20010         1.29055
C          1.53099         7.56671         1.06462
C          2.76067         5.46558         1.20624
C          2.70879         8.27057         0.72448
C          1.48844        10.54855         0.58917
C          1.52782        11.89846         0.40445
C          2.62492         9.68878         0.27112
C          2.74568        12.61996         0.09610
C          1.53680        14.80934        -0.18818
C          1.53161        16.20182        -0.24685
C          2.73139        14.08616        -0.00304
C          2.72208        16.93781        -0.08545
C          2.74405        18.37449        -0.12272
C          4.06560         1.89583         1.30325
C          4.02819         3.32678         1.23298
C          5.30648         1.21156         1.19613
C          5.25297         4.05818         1.09069
C          3.96876         6.17698         0.95798
C          3.93263         7.57872         0.71415
C          5.22863         5.46580         0.94692
C          5.21223         8.26710         0.26660
C          3.97633        10.46869         0.02894
C          3.94628        11.93638         0.06739
C          5.17476         9.76020         0.41690
C          5.26479        12.64971        -0.12672
C          3.95538        14.80328         0.11161
C          3.94726        16.23270         0.11477
C          5.20607        14.11466         0.23045
C          5.15805        16.95299         0.30609
C          3.91058        19.06864         0.03978
C          5.15872        18.38708         0.27308
C          6.52031         1.90668         1.09393
C          6.50482         3.35598         1.09147
C          7.75808         1.22259         0.97567
C          7.71644         4.06623         1.10152
C          6.46320         6.18989         0.90109
C          6.46138         7.60807         0.80587
C          7.70083         5.50101         1.06758
C          7.64549         8.31795         1.01816
C          6.32321        10.53517         0.87166
C          6.43378        11.95458         0.52919
C          7.61740         9.78360         1.20143
C          7.64076        12.62371         0.65382
C          6.38494        14.80559         0.48467
C          6.37855        16.25163         0.55269
C          7.65238        14.09050         0.58437
C          7.55316        16.97080         0.82784
C          6.35279        19.08661         0.46567
C          7.57493        18.40930         0.77274
C          8.98416         1.91396         0.90392
C          8.97970         3.36462         1.03891
C         10.21300         1.23617         0.77779
C         10.17464         4.06886         1.03592
C          8.91004         6.23614         1.13945
C          8.89402         7.63719         1.14450
C         10.20006         5.51579         1.43725
C         10.13684         8.39555         1.26263
C          8.87966        10.53447         1.13333
C          8.86919        11.90620         0.92508
C         10.10890         9.78647         1.29434
C         10.20802        12.57527         0.66402
C          8.81977        14.79003         0.77394
C          8.78739        16.22981         1.13814
C         10.12809        14.10682         0.68200
C         10.04162        17.00997         1.47036
C          8.75398        19.13380         0.99831
C         10.01061        18.53702         1.57662
C         11.44699         1.94407         0.69430
C         11.40809         3.41406         0.71330
C         12.67919         1.30863         0.70318
C         12.53189         4.14341         0.35484
C         11.40910         6.27473         0.96315
C         11.40668         7.68833         1.10742
C         12.55943         5.59246         0.48266
C         12.61351         8.40518         0.93818
C         11.35532        10.52961         1.57571
C         11.26007        12.04895         1.66622
C         12.67244         9.82312         1.33294
C         12.63851        12.73401         1.50271
C         11.35363        14.89619         0.98188
C         11.33776        16.35892         1.20920
C         12.64152        14.21265         1.28313
C         12.48478        17.05736         0.91672
C         11.25736        19.19130         1.03162
C         12.44161        18.51870         0.81273
C         13.94037         2.15197         0.74441
C         13.68087         3.33825        -0.25064
C         15.23981         1.35693         0.67628
C         14.87915         4.19239        -0.55648
C         13.71344         6.33786         0.16072
C         13.79266         7.73953         0.45693
C         14.78447         5.69014        -0.66616
C         15.00463         8.44536         0.30887
C         13.88884        10.62455         1.02856
C         13.86560        11.98627         1.10289
C         15.18488         9.84792         0.85696
C         15.10177        12.80302         0.86977
C         13.82352        14.94935         0.77858
C         13.73211        16.35297         0.62624
C         15.02715        14.26176         0.58168
C         14.88410        17.07466         0.22894
C         13.65364        19.20690         0.46722
C         14.85008        18.53745         0.20429
C         16.23613         1.55197        -0.24763
C         15.98961         3.58832        -1.06992
C         17.63813         1.27235        -0.18222
C         17.28512         4.21306        -1.18489
C         16.13716         6.33711        -0.61769
C         16.28085         7.70984        -0.00136
C         17.25396         5.66183        -1.05077
C         17.29996         8.56236        -0.70888
C         16.25267        10.62407         0.11440
C         16.32042        12.07798         0.33196
C         17.31181         9.94661        -0.50808
C         17.35718        12.88652        -0.33624
C         16.14783        14.98082         0.07933
C         16.06569        16.37928        -0.09666
C         17.33830        14.26573        -0.35230
C         17.18448        17.14202        -0.77178
C         16.07492        19.23824         0.02055
C         17.27297        18.57841        -0.30617
C         18.63781         2.07525        -0.80160
C         18.49604         3.49580        -1.18512
C         19.93131         1.49848        -0.85508
C         19.73246         4.23366        -1.45140
C         18.47690         6.39960        -1.42796
C         18.45281         7.90320        -1.33769
C         19.73859         5.66655        -1.54474
C         19.75203         8.60811        -1.25846
C         18.48870        10.69989        -1.02767
C         18.50719        12.18247        -0.92140
C         19.77229         9.95463        -1.08612
C         19.77125        12.93466        -1.01266
C         18.50497        15.01718        -0.80790
C         18.50716        16.41242        -0.79402
C         19.73531        14.30432        -1.06169
C         19.73830        17.15303        -0.89953
C         18.50219        19.24470        -0.35324
C         19.73234        18.58220        -0.64992
C         21.07510         2.17311        -1.35135
C         20.95225         3.56932        -1.64375
C         22.32375         1.52412        -1.48882
C         22.07491         4.28804        -2.34756
C         20.95958         6.38621        -1.65663
C         20.99666         7.81001        -1.25831
C         22.16471         5.75133        -1.99691
C         22.32250         8.54970        -1.34623
C         21.04979        10.67488        -0.92437
C         21.04485        12.20916        -0.91907
C         22.28842        10.01528        -1.29852
C         22.29721        12.93259        -1.24895
C         20.93685        15.05798        -1.57409
C         20.96190        16.50033        -1.14116
C         22.24898        14.33531        -1.39031
C         22.19577        17.20497        -1.14503
C         20.94794        19.27990        -0.65310
C         22.19054        18.62574        -0.87678
C         23.48781         2.20352        -1.95666
C         23.40443         3.59133        -2.27347
C         24.75009         1.56075        -2.05171
C         24.51401         4.26388        -2.81260
C         23.37276         6.47830        -2.25145
C         23.48501         7.84491        -1.92509
C         24.49382         5.76428        -2.92603
C         24.70812         8.59697        -2.06413
C         23.56119        10.74439        -0.95787
C         23.51587        12.23155        -1.32181
C         24.79392         9.98770        -1.48569
C         24.70261        12.96984        -1.57257
C         23.44876        15.07588        -1.49688
C         23.43105        16.53114        -1.37287
C         24.66793        14.38531        -1.62739
C         24.65899        17.23968        -1.28535
C         23.41176        19.32092        -0.81609
C         24.65157        18.65427        -0.98297
C         25.84428         2.15100        -2.72686
C         25.58597         3.45750        -3.27105
C         27.13923         1.49286        -2.59723
C         27.36330         4.72332        -3.70501
C         25.81928         6.59341        -3.05285
C         25.84832         7.99362        -2.56740
C         27.13280         5.92515        -3.08609
C         27.12260         8.75167        -2.78075
C         25.99695        10.81302        -1.78884
C         25.95725        12.28876        -1.75063
C         27.16321        10.20630        -2.49006
C         27.16705        12.98809        -1.83683
C         25.91194        15.16230        -1.97727
C         25.91059        16.56771        -1.43069
C         27.18958        14.41290        -1.71047
C         27.12355        17.23142        -1.20402
C         25.87846        19.33339        -0.83940
C         27.11784        18.65066        -0.90754
C         28.42160         1.85589        -3.02384
C         28.55923         3.98620        -3.54386
C         29.64743         1.46338        -2.42016
C         29.65099         4.45600        -2.78816
C         28.28769         6.58765        -2.37127
C         28.45871         8.01545        -2.89767
C         29.60339         5.83921        -2.43281
C         29.62765         8.70356        -2.19115
C         28.44563        10.88578        -2.18715
C         28.41736        12.25810        -1.89239
C         29.63670        10.12666        -2.05533
C         29.63333        12.95515        -1.62255
C         28.38693        15.09271        -1.47051
C         28.38651        16.52316        -1.21980
C         29.62367        14.36185        -1.39980
C         29.58076        17.17871        -0.88883
C         28.33652        19.31617        -0.68317
C         29.57467        18.61073        -0.60265
C         30.85642         2.22490        -2.36337
C         30.85210         3.67805        -2.60676
C         31.92726         1.54647        -1.67736
C         31.99695         4.47676        -2.37472
C         30.75081         6.50770        -1.98471
C         30.74673         7.95901        -1.80924
C         31.98111         5.79621        -1.88926
C         31.97355         8.61151        -1.40935
C         30.83861        10.79399        -1.67146
C         30.84078        12.21147        -1.52117
C         32.01893        10.04005        -1.40980
C         32.05780        12.89448        -1.23076
C         30.84888        15.04014        -1.13820
C         30.83593        16.46661        -0.84723
C         32.04723        14.30807        -1.07865
C         32.01206        17.11335        -0.44858
C         30.74014        19.25485        -0.20859
C         31.95404        18.47679         0.19847
C         33.10680         2.04434        -1.06591
C         33.59570         3.37397        -1.36685
C         33.83898         1.36425        -0.06430
C         34.22666         4.19513        -0.49218
C         33.00367         6.36560        -0.89122
C         33.12261         7.86868        -1.02634
C         34.39589         5.67392        -0.79943
C         34.30049         8.52616        -0.59508
C         33.22925        10.71852        -1.08517
C         33.25711        12.13801        -1.06452
C         34.36740         9.94965        -0.65761
C         34.46400        12.82145        -0.66898
C         33.35855        15.03073        -0.97956
C         33.26516        16.42394        -0.40270
C         34.45481        14.16495        -0.41542
C         34.42517        17.07844        -0.02334
C         33.26078        19.22337         0.13261
C         34.46121        18.52075         0.18183
C         34.76998         2.07281         0.74785
C         34.73769         3.56149         0.72862
C         35.65026         1.44380         1.62966
C         35.73061         4.34768         1.54908
C         35.26413         6.40025         0.21965
C         35.37332         7.80480         0.06994
C         36.01922         5.76814         1.21232
C         36.48053         8.48765         0.66134
C         35.57783        10.59067        -0.30114
C         35.75065        12.03962        -0.68990
C         36.65988         9.86716         0.22910
C         36.88016        12.72049         0.03517
C         35.61286        14.81494         0.22388
C         35.62887        16.29919         0.36001
C         36.87711        14.05397         0.33054
C         36.99902        16.94922         0.30970
C         35.72915        19.14749         0.39719
C         36.95635        18.44364         0.53592
C         36.61154         2.16865         2.40209
C         36.70394         3.57912         2.32675
C         37.51681         1.47861         3.27117
C         37.59345         4.31388         3.14822
C         36.93612         6.50354         2.03319
C         37.27221         7.84788         1.67956
C         37.55215         5.75478         3.14491
C         38.32581         8.62298         2.41754
C         37.93278        10.52806         0.26726
C         38.06009        11.91522         0.25853
C         39.18329         9.56696         1.79504
C         39.28345        12.59711         0.57762
C         38.05520        14.70093         0.96241
C         38.05149        16.20520         1.14174
C         39.33010        13.93669         0.94792
C         39.36602        16.91289         1.36246
C         38.15435        19.09290         0.75935
C         39.47270        18.43341         1.07219
C         38.35619         2.17447         4.10525
C         38.36083         3.60455         4.12405
C         39.00316         4.32253         5.16264
C         38.02185         6.36366         4.31268
C         38.48183         8.54293         3.82033
C         38.76764         5.68034         5.29720
C         39.40443         9.31908         4.53959
C         40.07924        10.42812         2.49035
C         40.72666        11.58344         1.86576
C         40.18378        10.26386         3.88963
C         41.48375        12.55241         2.49275
C         40.55749        14.57570         1.35612
C         40.62239        16.08057         1.31714
C         41.57942        13.89854         2.01043
C         41.79921        16.70372         0.69547
C         40.53261        18.69551         0.03127
C         41.66179        17.89064        -0.03220
O         15.88919         2.24014        -1.42597
O         10.93765        14.65146        -0.43918
O         40.46467        11.83867         0.49111
O         26.96914         9.75701        -3.87348
O         33.23944         3.88255        -2.62772
O         37.67537         7.69972         4.58603
O         34.33125         4.16039         2.00366
O         12.85468        13.66599         2.62036
O         21.81498         7.98954        -0.05733
O         37.67619        15.37009         2.24480
O          6.72367        10.21230         2.27765
O          3.18517         9.87099        -1.06347
O         35.28809        15.47906         1.52372
O         26.34095         3.98484        -4.32576
O         39.07894         9.71530         0.39928
O         12.12523        10.00927         2.70262
O         40.06093        16.61101         2.60539
O         24.92503         6.33918        -4.17971
O         16.18892        12.43800         1.79000
O         28.56015         2.73808        -4.13215
O         21.10870        11.46226         0.33794
O          9.27068        16.39335         2.55826
O         25.86852        10.11372        -0.47796
O         18.19887        11.49573        -2.23307
O         18.19354         7.24859        -2.63916
O         10.74177        12.36550         2.96391
H         11.34963        11.97701         3.62961
O         13.98577         2.78427         2.05943
H         13.88177         2.08972         2.74233
O         10.63923        12.14062        -0.64677
H         10.82127        12.95066        -1.18098
O         10.30409         5.49524         2.91385
H         10.39212         6.42588         3.21361
O         14.30488         5.91017        -2.06790
H         15.08420         5.84267        -2.66223
O         36.13230        12.03019        -2.11606
H         36.93739        11.47575        -2.20122
O          5.53651        12.59567        -1.57512
H          4.77365        13.00771        -2.03374
O         27.92568         6.72821        -0.96627
H         27.95857         5.84520        -0.54300
O         25.85742        15.32111        -3.44980
H         26.64744        15.83806        -3.71627
O         28.80949         7.92976        -4.29062
H         28.42144         8.72163        -4.73148
O         15.70984         9.69877         2.24016
H         15.95028        10.61343         2.53550
O          9.97137        18.87135         3.00539
H          9.49466        18.12876         3.44564
O         35.07220         5.83016        -2.06398
H         34.61534         5.24506        -2.71306
O         31.76356        18.20173         1.65610
H         32.52808        17.65642         1.94485
O          5.27966         8.03182        -1.19429
H          4.50573         8.50869        -1.58302
O         32.38115         6.11370         0.40081
H         31.58360         6.67872         0.47607
O         33.79131        15.27335        -2.38041
H         33.87289        14.39632        -2.81505
O         16.90960         7.43776         1.31489
H         16.67367         8.19718         1.91089
O         39.94616        19.10202         2.27699
H         40.27156        18.39023         2.88217
O         21.72547         4.21995        -3.78575
H         20.85945         4.66909        -3.89480
O         23.62680        10.72014         0.49728
H         24.56942        10.54930         0.73549
O         16.78383        17.22429        -2.19145
H         17.37962        17.87135        -2.62547
O         13.19612         2.75978        -1.48604
H         13.17334         3.47288        -2.15835
O         20.74165        15.09394        -3.03875
H         19.85528        15.47937        -3.20711
O         37.47647        16.76455        -1.06370
H         36.90082        17.28788        -1.66128
H          0.71222         1.30079         1.70464
H          0.63233         3.75870         1.58232
H          2.87906         0.08254         1.51685
H          0.61010         5.68896         1.51079
H          0.56826         8.09471         1.09857
H          0.58693        10.09541         1.02645
H          0.62443        12.48146         0.63198
H          0.58563        14.27233        -0.30696
H          0.58425        16.73614        -0.40780
H          1.79804        18.91068        -0.28800
H          5.31187         0.11133         1.21045
H          3.91090        20.16800         0.00745
H          7.75646         0.12293         0.93027
H          6.35132        20.18598         0.42403
H         10.22289         0.13574         0.75832
H          8.70776        20.23232         0.94169
H         12.73753         0.20998         0.73837
H         11.23967        20.28789         0.93730
H         15.51068         0.85312         1.61947
H         13.63948        20.30718         0.44402
H         17.98355         0.39315         0.38480
H         16.09286        20.32577         0.19276
H         20.04322         0.44977        -0.53931
H         18.53589        20.31629        -0.10189
H         22.40219         0.45798        -1.22883
H         20.94620        20.36183        -0.45210
H         24.85976         0.54350        -1.64840
H         23.40883        20.39901        -0.59592
H         27.12953         0.68412        -1.84672
H         25.87367        20.41174        -0.62024
H         29.62499         0.53721        -1.82340
H         28.32682        20.39516        -0.46683
H         31.68862         0.50301        -1.40851
H         30.71294        20.33362         0.01009
H         33.65486         0.29721         0.13222
H         33.25676        20.31213         0.29362
H         35.64620         0.34557         1.70095
H         35.74988        20.24145         0.51907
H         37.49026         0.37985         3.30226
H         38.14292        20.18831         0.87531
H         38.99585         1.63703         4.82047
H         39.59535         3.78071         5.91356
H         39.14558         6.23661         6.16485
H         39.46040         9.20192         5.62896
H         40.85892        10.90541         4.47113
H         41.96298        12.34056         3.46069
H         42.39794        14.51189         2.42038
H         42.71283        16.10265         0.57966
H         40.46969        19.60212        -0.58687
H         42.49920        18.20599        -0.67376
