         324
 CSIRO Nanostructure Databank - Neutral Graphene Oxide Data Set
C         30.68775        56.69359        -1.85294
C         30.59743        58.12356        -1.78450
C         29.49349        58.81502        -2.22766
C         30.63043        60.96192        -2.00291
C         29.49520        60.24385        -2.28487
C         32.82265        52.81837        -0.16123
C         33.02870        54.00128        -0.79107
C         31.96164        54.54356        -1.72725
C         33.10895        56.79453        -1.41901
C         31.88308        56.04878        -1.66890
C         33.05283        58.13778        -1.17232
C         31.72480        58.86334        -1.10513
C         33.00653        61.01066        -1.41392
C         31.82652        60.31287        -1.54545
C         35.26248        48.50271         0.42510
C         34.77886        49.79208         0.75382
C         34.02717        50.71248         0.07734
C         35.22083        52.84947         0.67128
C         33.86683        52.12020         0.65306
C         35.36644        54.15051         0.04893
C         34.27973        54.71227        -0.63578
C         35.64230        56.81367        -1.20850
C         34.39548        55.97968        -1.45577
C         35.55940        58.27839        -0.97601
C         34.23155        58.92297        -0.64887
C         35.42168        61.09369        -0.96482
C         34.24306        60.38740        -1.03941
C         37.78051        44.43954         0.86105
C         37.73148        45.82155         1.12362
C         36.55725        46.54352         0.83964
C         37.62289        48.67866         1.45947
C         36.44949        47.94008         0.98395
C         37.62565        50.10093         1.60779
C         36.44508        50.88346         1.68471
C         37.58083        53.03705         1.43664
C         36.35479        52.24287         1.23758
C         37.68264        54.37698         0.85452
C         36.64197        54.88780         0.12257
C         38.18252        56.89382        -0.66183
C         36.90341        55.98478        -0.91871
C         37.97035        58.38524        -0.41589
C         36.77012        59.03914        -0.58700
C         37.87353        61.21976        -0.59187
C         36.69861        60.47675        -0.66549
C         40.45113        40.88004        -0.84944
C         40.33799        41.83154         0.13341
C         39.07106        42.43291         0.36822
C         40.20131        44.41756         1.32769
C         38.99922        43.73484         0.89182
C         40.10791        45.78228         1.71256
C         38.90992        46.51889         1.56352
C         40.08649        48.64615         1.90591
C         38.87147        47.96148         1.66553
C         40.21612        50.06892         1.61798
C         38.89167        50.83540         1.47922
C         40.16569        53.02638         1.65746
C         38.87231        52.30503         1.72146
C         40.18495        54.38239         1.46295
C         38.90290        55.17066         1.24678
C         40.27935        57.12301         0.64076
C         39.13430        56.39335         0.41066
C         40.35298        58.51609         0.21303
C         39.15891        59.15711        -0.18820
C         40.34094        61.30157        -0.31727
C         39.12762        60.58248        -0.35522
C         43.15753        37.52537        -3.33369
C         43.03457        38.61346        -2.42729
C         41.81721        39.22410        -2.15934
C         42.88647        40.61299        -0.36624
C         41.78783        40.54391        -1.43063
C         42.87112        41.89056         0.45972
C         41.50499        42.26402         1.00937
C         42.61846        44.35006         1.85524
C         41.43977        43.72180         1.41498
C         42.59295        45.73048         2.20600
C         41.29599        46.40945         2.28841
C         42.58383        48.65998         2.46817
C         41.27768        47.96658         2.41616
C         42.57652        50.11415         2.41713
C         41.43196        50.79337         2.04901
C         42.59402        53.04999         2.46816
C         41.33538        52.27237         2.18937
C         42.59593        54.52049         2.21605
C         41.38564        55.18187         1.66373
C         42.64122        57.35602         1.63193
C         41.40866        56.52111         1.32895
C         42.73097        58.66455         0.86751
C         41.54282        59.26975         0.36016
C         42.79462        61.36860         0.04691
C         41.55590        60.65895        -0.00800
C         45.75226        35.63718        -5.28373
C         44.50543        36.05771        -4.82305
C         45.62498        37.59064        -3.29185
C         44.41471        37.05629        -3.81630
C         45.54382        38.58495        -2.22006
C         44.25465        39.23432        -1.88955
C         45.38295        41.18915        -0.74775
C         44.20835        40.26894        -1.00432
C         45.30226        41.82005         0.64089
C         44.00677        42.39755         1.03184
C         45.06892        44.33190         2.49233
C         43.84354        43.47942         2.14751
C         45.00911        45.72238         2.60126
C         43.77412        46.46560         2.49040
C         45.04512        48.62471         2.82209
C         43.75142        47.90370         2.64156
C         45.09781        50.12605         2.87974
C         43.77514        50.90241         2.97705
C         45.05151        52.90293         2.02347
C         43.86529        52.30892         2.42095
C         45.13575        54.35577         1.83109
C         43.91685        55.18082         2.03947
C         45.19032        57.29391         1.68985
C         43.92006        56.52707         1.34961
C         45.20413        58.73908         1.31794
C         43.93332        59.36891         0.85028
C         45.23434        61.52116         0.63111
C         43.96084        60.73594         0.43217
C         46.93442        36.17900        -4.77332
C         48.11164        37.72779        -3.21931
C         46.89560        37.17244        -3.76151
C         48.11845        38.72642        -2.24899
C         46.80748        39.20863        -1.74097
C         47.96204        40.82935        -0.26023
C         46.74217        40.54040        -1.06585
C         47.75192        41.48844         1.03806
C         46.40621        41.84366         1.45025
C         47.52042        44.28547         3.06374
C         46.29669        43.66121         2.82419
C         47.52886        45.75431         3.19750
C         46.23832        46.47409         2.94504
C         47.52229        48.58614         2.43086
C         46.30387        47.90467         2.59042
C         47.52614        50.01337         2.16697
C         46.32069        50.78008         2.33175
C         47.45184        52.71703         1.29816
C         46.26565        52.11178         1.92095
C         47.47337        54.23474         1.06448
C         46.29592        55.00316         1.49524
C         47.63293        57.11518         1.00079
C         46.48972        56.48610         1.77471
C         47.64449        58.51184         0.71306
C         46.48088        59.33328         0.86209
C         47.65272        61.25635        -0.05555
C         46.48643        60.68352         0.45012
C         49.28453        39.15879        -1.55749
C         50.33272        40.42217         0.30673
C         49.21937        40.05398        -0.46820
C         50.20545        41.39851         1.34616
C         48.86287        41.68233         1.81720
C         49.99841        44.18207         2.75265
C         48.78709        43.58238         3.02041
C         50.05757        45.67248         2.78507
C         48.81428        46.48815         2.96806
C         49.96901        48.50551         2.03679
C         48.76824        47.87472         2.44564
C         49.95405        49.89261         1.65998
C         48.73617        50.64138         1.75674
C         49.92457        52.68810         1.00870
C         48.74370        52.02402         1.37742
C         49.94629        54.12624         0.79224
C         48.77573        54.90123         0.93120
C         50.02561        56.96189         0.42558
C         48.79846        56.33019         0.79795
C         50.04464        58.36588         0.12527
C         48.84914        59.11933         0.21905
C         50.03777        61.10521        -0.64048
C         48.85346        60.50558        -0.16155
C         51.29116        42.13256         1.83438
C         52.43446        44.17493         2.36184
C         51.23925        43.47039         2.38849
C         52.50753        45.67049         2.55266
C         51.20002        46.26874         2.01134
C         52.36673        48.38271         1.48891
C         51.19714        47.77365         1.94757
C         52.32047        49.73089         1.03429
C         51.13444        50.50408         1.15067
C         52.32819        52.57568         0.48243
C         51.14527        51.92863         0.85675
C         52.41429        54.01545         0.38869
C         51.19302        54.79131         0.53823
C         52.48663        56.89843         0.15162
C         51.21372        56.19077         0.37167
C         52.45696        58.26150        -0.39873
C         51.24659        58.99293        -0.33728
C         52.44224        60.96014        -1.21047
C         51.24058        60.37262        -0.73827
C         53.68360        46.30647         1.85777
C         54.78980        48.23761         0.86612
C         53.61943        47.60748         1.38961
C         54.77797        49.55616         0.38693
C         53.48050        50.25835         0.32393
C         54.80563        52.40881        -0.06253
C         53.50270        51.79737         0.06367
C         54.94024        53.88124         0.17360
C         53.62980        54.61645         0.07853
C         54.84730        56.66116        -0.81848
C         53.74549        56.07916        -0.02749
C         54.77763        57.99491        -1.20729
C         53.62578        58.82258        -0.94645
C         54.80968        60.80684        -1.87268
C         53.62266        60.21008        -1.35623
C         55.93472        50.21428        -0.06048
C         57.18091        52.28398        -0.62048
C         55.96938        51.62671        -0.28303
C         57.20837        53.67966        -0.91322
C         56.04473        54.47756        -0.67044
C         57.14458        56.38333        -1.72775
C         56.00071        55.82230        -1.10672
C         57.08796        57.72982        -2.29981
C         55.83686        58.56959        -2.05944
C         57.13172        60.59278        -2.69459
C         55.94530        60.04003        -2.19308
C         58.37066        54.28761        -1.43833
C         59.53522        56.29887        -2.31010
C         58.36971        55.65165        -1.81757
C         59.54726        57.67829        -2.65432
C         58.33530        58.42566        -2.62318
C         59.53940        60.43895        -3.28292
C         58.32121        59.81946        -2.89666
C         60.74309        58.34184        -3.04715
C         60.72030        59.69808        -3.36551
O         43.28379        55.19870         3.35073
O         41.04403        47.09104         3.55467
O         53.46713        56.76304         1.25612
O         39.68196        50.48324         0.30478
O         53.18664        50.81075        -0.98507
O         41.68644        52.68977         3.55660
O         49.79402        46.30077         4.06491
O         45.26460        49.36002         4.11472
O         47.66464        41.57089        -1.52835
O         46.26802        42.26309         2.78630
O         46.17906        38.15338        -0.92572
O         35.28537        50.21837         2.03237
O         46.73751        46.24645         4.32812
O         37.10417        55.20259        -2.08354
O         48.73730        42.18161         3.11607
O         56.02396        57.86778        -3.32558
O         47.18340        53.29979        -0.02772
O         38.06597        52.81304         2.83507
O         45.12669        58.29406         2.74044
O         35.74634        57.74986        -2.32917
O         38.94469        56.84747        -1.89156
H         38.47023        56.16248        -2.44728
O         51.03108        45.81776         0.63855
H         51.79733        46.14209         0.11855
O         46.93179        56.52111         3.16493
H         46.52289        57.32681         3.56535
O         33.37296        52.06232         2.01195
H         33.94161        51.42532         2.50459
O         52.59657        45.99345         3.96476
H         53.35308        45.50307         4.34638
O         43.48951        51.08905         4.38211
H         43.91717        50.34184         4.86526
O         42.56940        57.73601         3.01964
H         42.68192        56.91488         3.55906
O         31.36235        58.90400         0.32010
H         32.20211        59.03385         0.82419
O         55.36992        54.05124         1.58526
H         55.16946        54.97850         1.84152
O         34.58042        55.45450        -2.80711
H         35.56845        55.24480        -2.85095
O         34.11018        58.88864         0.82008
H         34.74814        59.53883         1.18588
O         42.57839        39.54259         0.59169
H         43.41256        39.28735         1.04064
O         32.25496        54.10632        -3.06342
H         33.12593        54.51455        -3.30707
O         41.35968        41.46049         2.23577
H         41.54670        40.52797         1.96198
O         45.20198        42.26220        -1.71331
H         46.10171        42.61064        -1.91494
O         45.23026        62.66736        -0.21293
H         45.84886        63.33154         0.14923
O         43.53594        42.74880         3.35936
H         42.70754        42.22717         3.19477
O         38.57305        55.66921         2.59572
H         38.44404        54.87106         3.16089
O         42.08538        41.58234        -2.41783
H         41.41364        41.52806        -3.12883
O         43.96643        56.24185        -0.07051
H         43.71534        57.05330        -0.56261
H         29.78747        56.11380        -2.10985
H         28.62598        58.26663        -2.62409
H         30.65752        62.04758        -2.18128
H         28.59640        60.76065        -2.65038
H         31.85618        52.30235        -0.26868
H         30.96976        54.10386        -1.44949
H         33.02376        62.08819        -1.64513
H         34.66280        47.85981        -0.23608
H         33.66313        50.49841        -0.93588
H         35.41487        62.17098        -1.19278
H         36.86934        43.92475         0.52171
H         35.69073        45.99009         0.44699
H         37.84103        62.31098        -0.72812
H         39.54587        40.57110        -1.39925
H         38.17249        41.98913        -0.08750
H         40.33773        62.38260        -0.52195
H         42.23926        37.08713        -3.75371
H         40.89638        38.85220        -2.63599
H         42.81891        62.43716        -0.21011
H         45.80696        34.86404        -6.06310
H         43.58578        35.61825        -5.23458
H         45.23552        61.87354         1.71040
H         47.90623        35.83229        -5.15255
H         49.06921        37.31958        -3.57670
H         47.65117        62.30683        -0.38129
H         50.25330        38.70663        -1.81925
H         51.32884        40.02910         0.05366
H         50.02227        62.16383        -0.93914
H         52.29044        41.81377         1.49271
H         53.35416        43.64174         2.07019
H         52.43895        62.02045        -1.50378
H         54.65162        45.78016         1.84790
H         55.73480        47.67418         0.86515
H         54.81978        61.89021        -2.06444
H         56.88216        49.65660        -0.10089
H         58.09361        51.68881        -0.76781
H         57.18468        61.68005        -2.85524
H         59.28539        53.69058        -1.56466
H         60.47012        55.72380        -2.38453
H         59.54782        61.51481        -3.50797
H         61.68358        57.77533        -3.09532
H         61.65050        60.19786        -3.67041
