         349
 CSIRO Nanostructure Databank - Neutral Graphene Oxide Data Set
C          1.32735         3.42851         1.05370
C          0.14826         4.12917         1.17815
C          1.22075         6.31161         0.83691
C          0.08561         5.54668         1.01694
C          1.18531         7.75021         0.60396
C         -0.02510         8.48716         0.68303
C          1.09977        10.57817         0.05175
C         -0.06096         9.84602         0.43938
C          1.05284        11.99675        -0.18769
C         -0.11035        12.74000         0.08724
C          1.07017        14.88568        -0.10569
C         -0.13211        14.12647         0.06080
C          1.04294        16.34043         0.05207
C         -0.09765        17.08410        -0.11017
C          1.06609        19.24038         0.17350
C         -0.09729        18.50815        -0.00941
C          1.05609        20.70951         0.19884
C         -0.13890        21.45557         0.16344
C          1.08569        23.56445         0.29879
C         -0.11733        22.84649         0.18415
C          1.05829        25.09415         0.44924
C         -0.07055        25.75309        -0.30026
C          1.30714        27.66924        -0.94298
C          0.05786        26.95787        -0.91406
C          1.40874        28.98466        -1.49447
C          3.73542         3.42862         0.52984
C          2.55652         4.10984         0.79449
C          3.59832         6.26375         0.07811
C          2.56661         5.61649         0.97310
C          3.65350         7.75595         0.19656
C          2.35790         8.48165         0.24664
C          3.51709        10.56280        -0.67266
C          2.32565         9.85315        -0.04491
C          3.53646        12.05148        -0.45976
C          2.23935        12.74859        -0.76087
C          3.50347        14.98592        -0.58847
C          2.25908        14.21413        -0.38114
C          3.53301        16.42710        -0.19933
C          2.31837        17.02393         0.48538
C          3.53595        19.18708         0.33682
C          2.31860        18.52905         0.31506
C          3.54520        20.66109         0.19362
C          2.27455        21.41844         0.29383
C          3.55712        23.53661         0.73101
C          2.28935        22.83080         0.40145
C          3.59464        25.07171         0.64793
C          2.39003        25.74706         0.13546
C          3.75575        27.76196        -0.40473
C          2.47053        27.00800        -0.44808
C          3.80200        29.22628        -0.83715
C          2.56727        29.71671        -1.47819
C          6.18019         3.43694         0.07468
C          4.95500         4.08592         0.14939
C          6.08374         6.24547        -0.66361
C          4.83255         5.50250        -0.27722
C          6.07932         7.74360        -0.70192
C          4.88737         8.47747        -0.19238
C          6.05352        10.61451        -0.42648
C          4.85370         9.93380        -0.40368
C          6.08608        12.05751        -0.52511
C          4.79929        12.74252        -0.72815
C          6.05763        14.95469        -0.34050
C          4.81550        14.27461        -0.75326
C          6.01248        16.32198         0.09630
C          4.83611        17.06465         0.12636
C          6.02338        19.17487         0.58326
C          4.80828        18.48252         0.39371
C          6.06154        20.61019         0.69908
C          4.84083        21.38086         0.39809
C          6.05344        23.49418         0.74204
C          4.84431        22.82955         0.67181
C          6.11748        24.92965         0.54259
C          4.91322        25.67211         0.39009
C          6.19316        27.31844        -0.79838
C          4.96892        26.91672        -0.25938
C          6.27416        29.46454        -1.27662
C          5.06121        30.04382        -0.96583
C          8.64316         3.46536        -0.17215
C          7.41634         4.10548        -0.22130
C          8.59803         6.25503        -0.96894
C          7.41121         5.61640        -0.25777
C          8.59625         7.75855        -0.92722
C          7.34999         8.50349        -0.60906
C          8.57335        10.62959        -0.30479
C          7.31271         9.86175        -0.42253
C          8.56284        12.11293        -0.43593
C          7.28837        12.79479        -0.49811
C          8.53761        14.93117        -0.19641
C          7.27777        14.23477        -0.36818
C          8.54205        16.30719         0.17298
C          7.26005        16.92124         0.70273
C          8.45400        19.09235         0.87939
C          7.26708        18.43637         0.68114
C          8.50704        20.56467         0.87576
C          7.23905        21.30408         0.92797
C          8.50307        23.43868         1.00195
C          7.30192        22.75216         0.89325
C          8.63925        24.75509         0.30199
C          7.36244        25.54241         0.27930
C          8.68059        27.50409        -0.54412
C          7.43112        26.80893        -0.34824
C          8.72616        28.89672        -0.96440
C          7.62992        29.82782        -1.06786
C         11.10148         3.54505        -0.04856
C          9.89695         4.14937        -0.34048
C         11.13557         6.33156        -0.71763
C          9.92092         5.48556        -1.05636
C         11.09414         7.77621        -0.81210
C          9.88155         8.45538        -0.83431
C         11.04346        10.69899        -0.99251
C          9.86146         9.89581        -0.51000
C         11.08593        12.08068        -0.29780
C          9.76248        12.81567        -0.43042
C         11.02561        14.97071        -0.20415
C          9.77632        14.24981        -0.32686
C         11.01344        16.35843         0.12458
C          9.75132        16.98537         0.34005
C         11.02729        19.05554         1.14238
C          9.72607        18.33517         0.93977
C         11.00642        20.51850         1.47875
C          9.78557        21.29821         1.12968
C         11.01050        23.55058         1.68472
C          9.74238        22.76679         1.45374
C         10.98090        25.12969         1.49916
C          9.85364        25.60114         0.57734
C         11.16025        27.51961        -0.23013
C          9.88312        26.86458        -0.04058
C         11.20521        28.75528        -0.93769
C         10.00496        29.45747        -1.18330
C         13.57094         3.58726         0.03035
C         12.35871         4.24564        -0.14542
C         13.54315         6.44181        -0.29532
C         12.32095         5.68668        -0.38795
C         13.56136         7.79957        -0.57095
C         12.33993         8.54258        -0.76642
C         13.55491        10.72119        -0.74387
C         12.34508         9.94096        -0.85808
C         13.54380        12.07999        -0.46792
C         12.29820        12.88491        -0.79266
C         13.48667        15.01551        -0.15076
C         12.28002        14.30472        -0.28095
C         13.48451        16.41440         0.01780
C         12.25670        17.09541         0.22600
C         13.48754        19.23502         0.69326
C         12.27706        18.46701         0.62858
C         13.51000        20.56211         1.13453
C         12.28261        21.27209         1.51603
C         13.46859        23.27362         2.09360
C         12.29728        22.76217         1.62269
C         13.47294        25.44527         1.76122
C         12.32142        25.77459         1.10616
C         13.61224        27.51440        -0.13743
C         12.36944        26.92632         0.21272
C         13.64199        28.63778        -1.00453
C         12.45908        29.27617        -1.35050
C         16.05946         3.63266         0.14977
C         14.83080         4.27393         0.07553
C         16.10613         6.49907         0.01726
C         14.78664         5.74868         0.10008
C         16.11839         7.86897        -0.50541
C         14.84116         8.48464        -0.82568
C         16.10741        10.68758        -0.81878
C         14.82999        10.00750        -0.95794
C         16.09460        12.10276        -0.40353
C         14.78726        12.77962        -0.08652
C         16.06405        14.99106         0.11937
C         14.72228        14.26477         0.30058
C         16.06301        16.47653         0.01885
C         14.75095        17.20535        -0.24003
C         15.93624        19.30619         0.35542
C         14.76304        18.60591         0.34257
C         15.96043        20.82302         0.47238
C         14.79244        21.28029         1.30466
C         16.03324        23.53530         1.57039
C         14.80847        22.68887         1.82509
C         16.05894        25.04884         1.89709
C         14.83846        25.93317         1.47199
C         16.17074        27.41227        -0.18998
C         14.88983        27.05348         0.46884
C         16.18191        28.46561        -1.14993
C         14.93247        29.22237        -1.52775
C         18.56471         3.63574         0.09111
C         17.31857         4.33335         0.08307
C         18.56958         6.44789        -0.25687
C         17.35231         5.73576        -0.07170
C         18.57471         7.87081        -0.44349
C         17.32177         8.56241        -0.64057
C         18.57188        10.74968        -0.71235
C         17.31288        10.00424        -0.78820
C         18.57777        12.14221        -0.80424
C         17.27510        12.90045        -0.90774
C         18.53199        15.09676        -0.63139
C         17.32696        14.28031        -0.28511
C         18.58541        16.47798         0.02197
C         17.23150        17.17168        -0.07213
C         18.49094        19.42837         0.14335
C         17.19630        18.65940        -0.06606
C         18.43555        20.74790         0.83350
C         17.24888        21.43525         0.99267
C         18.52289        23.51836         1.82321
C         17.21545        22.82344         1.44582
C         18.58826        24.85817         1.06166
C         17.40758        25.86281         1.44273
C         18.61195        27.28849        -0.28024
C         17.35523        26.82083         0.24253
C         18.61305        28.32572        -1.26387
C         17.38293        28.89251        -1.68615
C         19.76114         4.31525        -0.02487
C         21.01900         6.46275        -0.27334
C         19.79866         5.72861        -0.19203
C         21.01971         7.83540        -0.37366
C         19.80356         8.59016        -0.45448
C         20.99606        10.80818        -0.32241
C         19.80429        10.02438        -0.54011
C         21.03255        12.15290        -0.51955
C         19.86986        12.86217        -1.16093
C         21.05298        15.19173        -0.71358
C         19.81763        14.39494        -0.95432
C         21.02310        16.52002        -0.50523
C         19.73908        17.32792        -0.57377
C         20.84525        19.17589         0.80729
C         19.75219        18.65582         0.15991
C         20.84663        20.50824         1.28994
C         19.70666        21.32366         1.24795
C         21.01115        23.39746         1.36919
C         19.76696        22.72118         1.51360
C         21.11463        24.73525         1.12286
C         19.91373        25.64277         1.18787
C         21.05435        27.28614        -0.36526
C         19.87765        26.76196         0.14902
C         21.04110        28.31473        -1.33266
C         19.84121        28.81863        -1.78459
O          8.38240         6.97589        -2.20009
O         17.71358        26.66840         2.52926
O         15.61986        12.13702         0.97561
O         17.01702        14.42772         1.12285
O         10.39076        18.30457         2.25783
O          3.34316        16.08061        -1.59604
O          5.94518         6.93957        -1.92364
O          3.72354         5.70340        -1.24181
O          3.42521        24.39105         1.93470
O         10.15681        23.14048         2.81416
O         15.11600        21.54059         2.70864
O         18.96552        15.01453        -2.01467
O         14.96044        27.32203         1.92546
O          4.34680        21.09384        -0.97977
O         17.80817        19.39228        -1.18016
O          9.39754        21.06051        -0.25751
O         11.61202        20.75687         2.77108
O          4.84681        13.54671        -2.01999
O          4.60903         8.16428         1.24435
O         13.43485        24.48834         2.77091
O         14.80312         9.14504        -2.14603
O         15.39268         6.34235         1.30504
O          6.15626        28.18510        -1.87644
O          9.39121        10.16544         0.86001
O          3.63462        28.84452         0.59120
O         18.50907        23.73767         3.24388
H         17.64495        24.17016         3.48370
O         20.03137        12.68570        -2.60851
H         19.38191        13.29648        -3.02822
O          2.06741        12.75415        -2.25572
H          2.83685        13.26823        -2.60453
O          0.81061        25.33265         1.87544
H          1.62486        25.03450         2.34901
O         14.71137        17.40276        -1.69777
H         15.44917        18.00226        -1.94362
O         10.80078        10.90604        -2.42225
H         10.96527        10.05763        -2.88647
O         15.75300        21.32273        -0.88057
H         16.48613        20.95175        -1.42754
O         10.61894        25.67905         2.78879
H         10.21521        24.94863         3.31674
O         16.08434        25.07329         3.33025
H         16.52233        25.94918         3.54404
O         20.13429        26.17908         2.49238
H         19.23698        26.53393         2.81517
O         10.09566         5.11810        -2.45995
H          9.63920         5.81366        -2.99071
O          3.31001        10.34958        -2.12597
H          2.71836        11.08463        -2.44264
O          2.49330        16.73798         1.90854
H          1.73105        17.12269         2.38981
O          7.60756         6.02104         1.13888
H          6.94102         5.56576         1.69635
O          3.02179         5.85876         2.33968
H          2.32334         5.53993         2.94886
O         19.49320        17.61910        -1.96000
H         19.38097        16.75468        -2.42491
O         18.91130        16.30494         1.41726
H         18.24501        15.67954         1.79669
O          8.86028        24.34153        -1.12034
H          8.14147        23.71850        -1.36540
O         15.05776        30.58593        -1.07946
H         15.20619        30.57188        -0.11111
O         11.35389        11.89612         1.10424
H         10.62287        11.34734         1.48225
O         12.29989        13.06448        -2.23190
H         11.83138        12.29869        -2.64888
O          7.21075        16.53620         2.11969
H          8.03570        16.85742         2.54509
O         17.00058        13.13332        -2.32467
H         17.08217        12.27513        -2.79329
O         18.41573        24.46498        -0.31246
H         18.80371        25.14296        -0.90620
O         14.49519        14.28353         1.73886
H         15.14948        13.66095         2.13366
H          1.32199         2.32892         1.08583
H         -0.79191         3.58289         1.33770
H         -0.91066         6.01047         0.99217
H         -0.95999         7.97895         0.95619
H         -1.03084        10.35500         0.51524
H         -1.03455        12.22466         0.38278
H         -1.07003        14.64730         0.29685
H         -1.04394        16.59404        -0.38062
H         -1.05657        19.02285        -0.15217
H         -1.11066        20.94731         0.10762
H         -1.07503        23.38152         0.14078
H         -1.06380        25.28407        -0.26297
H         -0.81881        27.42687        -1.38622
H          0.50927        29.41492        -1.96071
H          3.73917         2.32868         0.59483
H          2.59721        30.69327        -1.98370
H          6.22394         2.36140         0.30819
H          5.02665        31.04819        -0.51817
H          8.67223         2.38690         0.05298
H          7.88689        30.89446        -0.97919
H         11.11218         2.51177         0.33290
H         10.07230        30.48076        -1.58346
H         13.57027         2.49321         0.15368
H         12.49275        30.19821        -1.94798
H         16.08576         2.53268         0.18668
H         14.86297        29.27252        -2.64830
H         18.56327         2.54230         0.20809
H         17.39273        29.71989        -2.41030
H         20.71063         3.76137         0.01262
H         21.97265         5.91646        -0.23255
H         21.98279         8.36220        -0.41812
H         21.89684        10.30697         0.06077
H         21.96407        12.70222        -0.32218
H         22.02070        14.66907        -0.72928
H         21.97852        17.05421        -0.39216
H         21.77829        18.60082         0.88015
H         21.78415        20.89887         1.70726
H         21.93258        22.79592         1.33627
H         22.11197        25.19888         1.10280
H         22.02401        26.90052        -0.02118
H         21.99189        28.70474        -1.72117
H         19.81733        29.61822        -2.53873
