         210
 CSIRO Nanostructure Databank - Neutral Graphene Oxide Data Set
C         30.65664        31.49746         1.52752
C         30.71359        32.70312         1.15178
C         30.67942        35.69216         0.10627
C         30.69266        36.90981        -0.21916
C         30.59727        40.05657        -0.74508
C         30.56116        41.29736        -0.80568
C         33.30517        28.91790         2.11848
C         32.19308        29.46644         2.24210
C         32.87387        31.73590         2.20962
C         31.77525        30.82823         2.08362
C         32.98018        33.02026         1.61022
C         31.78181        33.61694         1.07651
C         32.95003        35.78426         0.71030
C         31.78297        34.96679         0.59784
C         32.95019        37.17181         0.36547
C         31.76547        37.80421        -0.14311
C         32.98058        40.07471        -0.33582
C         31.76884        39.19342        -0.62460
C         32.86531        41.56141        -0.25502
C         31.60958        42.21614        -0.46190
C         32.76102        44.23139        -0.09047
C         31.68980        43.62495        -0.34189
C         35.63179        27.34698         0.50008
C         35.56273        28.72208         0.85289
C         34.60442        29.34585         1.68104
C         35.64111        31.55683         1.22817
C         34.77149        30.72726         1.94943
C         35.51375        33.01390         1.24558
C         34.26072        33.67775         1.42458
C         35.45799        35.95793         1.17456
C         34.18609        35.15880         1.24739
C         35.40152        37.35541         0.67401
C         34.17772        37.95843         0.45356
C         35.38598        40.20279         0.28409
C         34.08281        39.47120         0.51302
C         35.34315        41.60975         0.10833
C         34.07244        42.29046        -0.01478
C         35.29461        44.44505         0.05045
C         34.07950        43.72974         0.02190
C         35.46862        45.86501         0.00355
C         37.62288        27.43061        -0.84631
C         36.53341        26.81308        -0.17581
C         37.73112        28.84772        -0.47657
C         36.67501        29.47308         0.30381
C         37.81775        31.67457         0.13434
C         36.68786        30.89790         0.50987
C         37.83741        33.08828         0.39214
C         36.68923        33.75354         0.87518
C         37.90868        35.96225         0.54760
C         36.79731        35.22253         1.25788
C         37.86486        37.40902         0.48266
C         36.64383        38.09581         0.55030
C         37.84056        40.26131         0.23515
C         36.61466        39.52615         0.35965
C         37.82053        41.67582         0.07566
C         36.56558        42.35107         0.03605
C         37.79163        44.48774        -0.30613
C         36.55364        43.77689        -0.06174
C         37.77825        45.99890        -0.64689
C         36.50580        46.54398        -0.03471
C         40.05685        25.12185        -2.29394
C         38.91058        25.43619        -1.84053
C         40.30080        27.84882        -1.85229
C         38.42826        26.76859        -1.79184
C         40.20412        29.02465        -1.08342
C         38.93867        29.61048        -0.68720
C         40.21693        31.71265        -0.32502
C         38.98459        30.98982        -0.30424
C         40.22216        33.13471        -0.22275
C         39.04858        33.82545         0.08648
C         40.23610        36.03118        -0.25847
C         39.02258        35.27436         0.11616
C         40.30046        37.45643         0.09699
C         39.08965        38.14523         0.29083
C         40.31208        40.29353         0.14720
C         39.08492        39.57333         0.24470
C         40.28980        41.71768         0.01446
C         39.04855        42.40499        -0.06195
C         40.32186        44.45613        -0.83274
C         39.01484        43.82881        -0.30638
C         40.31901        46.03494        -0.86636
C         39.04727        46.61662        -0.09497
C         40.28903        48.72033        -0.26828
C         39.21722        48.09765        -0.31520
C         42.65337        24.98694        -2.17694
C         41.36928        25.60173        -2.25733
C         42.64859        27.54710        -1.26143
C         41.45182        27.00938        -1.86117
C         42.65347        28.86963        -0.80930
C         41.44517        29.63297        -0.71127
C         42.67958        31.70743        -0.08881
C         41.45615        31.01096        -0.37227
C         42.73734        33.09855        -0.12893
C         41.51492        33.79510        -0.68058
C         42.78655        35.99759        -0.14571
C         41.53340        35.30605        -0.51522
C         42.78173        37.40523         0.01211
C         41.53857        38.14211         0.04351
C         42.79397        40.24957         0.24169
C         41.55003        39.56282         0.14543
C         42.76428        41.71710         0.38844
C         41.53439        42.46189         0.03558
C         42.83314        44.54986        -0.23080
C         41.57309        43.82935        -0.20752
C         42.83429        45.99084        -0.38173
C         41.61914        46.73374        -0.43996
C         42.89321        48.76080        -0.30560
C         41.61561        48.16347        -0.37057
C         43.75629        25.48820        -1.87333
C         45.16942        27.39650        -0.88224
C         43.86916        26.64620        -0.90041
C         45.20968        28.95161        -0.83895
C         43.90192        29.47675        -0.28137
C         45.18447        31.66002         0.23521
C         43.90551        30.93483         0.12714
C         45.16828        33.07745         0.34970
C         43.95687        33.80650         0.09584
C         45.19882        35.94483         0.32352
C         43.97621        35.24702         0.07524
C         45.22490        37.37364         0.33895
C         44.01533        38.10784         0.20460
C         45.28350        40.25298         0.24966
C         44.01469        39.54728         0.27267
C         45.33461        41.65937         0.12186
C         44.09723        42.45004         0.29166
C         45.32870        44.52194        -0.25406
C         44.06499        43.86978        -0.09482
C         45.32169        45.94893        -0.37194
C         44.10474        46.66923        -0.36016
C         43.94162        48.06491        -0.32945
C         47.60853        27.46752        -0.45896
C         46.43788        26.97710        -0.71962
C         47.65657        28.80873        -0.01302
C         46.43236        29.55653        -0.14674
C         47.58655        31.53495         0.87519
C         46.38758        30.89802         0.27561
C         47.56618        33.04249         1.11234
C         46.37282        33.80258         0.65941
C         47.57488        35.93938         1.09893
C         46.38671        35.19437         0.61266
C         47.66529        37.38210         0.75747
C         46.48531        38.07703         0.45382
C         47.73906        40.18275         0.09331
C         46.50628        39.51292         0.26268
C         47.79607        41.58849        -0.10651
C         46.56915        42.33389        -0.08951
C         47.82593        44.42745        -0.36155
C         46.56471        43.77091        -0.23507
C         47.69424        45.83558        -0.47050
C         46.62915        46.48892        -0.45840
C         50.14897        28.91336         0.48188
C         48.86216        29.46810         0.41517
C         50.10202        31.54774         1.07304
C         48.89396        30.85018         0.78025
C         50.05833        33.00329         1.30225
C         48.87345        33.72399         1.26669
C         50.10318        36.01021         1.73465
C         48.82045        35.19577         1.50548
C         50.14457        37.34348         0.95428
C         48.95194        38.00748         0.63880
C         50.31005        40.09980        -0.07895
C         48.97334        39.36972         0.04888
C         50.32501        41.58747        -0.13205
C         49.07496        42.27359        -0.22723
C         50.34300        44.25025        -0.35129
C         49.04541        43.70676        -0.34055
C         51.25260        29.46289         0.75012
C         52.51109        31.65341         1.30370
C         51.36861        30.82740         1.05764
C         52.43646        32.88794         1.43381
C         51.31585        33.76722         1.47447
C         52.46815        35.99936         1.45928
C         51.35096        35.13353         1.55330
C         52.54072        37.21804         1.21536
C         51.41403        38.03061         0.81473
C         52.61669        40.22273         0.39231
C         51.50887        39.34732         0.39538
C         52.71330        41.45409         0.18885
C         51.58342        42.29150        -0.07204
C         51.46225        43.69156        -0.22813
O         47.82508        35.58626         2.52282
O         43.84391        29.81658         1.11720
O         33.98296        31.30752         2.96103
O         39.18227        27.59376        -2.66974
O         47.29483        32.09482         2.19995
O         34.71673        35.87190         2.45090
O         43.44328        42.20322         1.59233
O         40.77899        35.89111        -1.63656
O         32.78262        39.47093        -1.64297
O         49.67900        39.46540        -1.23894
O         41.58852        33.52576        -2.11560
H         41.08963        34.25187        -2.55929
O         40.38712        43.97257        -2.19888
H         40.12342        44.71804        -2.78943
O         50.13919        36.41068         3.12379
H         49.21380        36.35550         3.46413
O         37.20148        35.21857         2.65943
H         36.36780        35.23893         3.18848
O         43.65997        26.15693         0.42033
H         42.86396        25.58579         0.42684
O         40.18623        46.41092        -2.24895
H         39.93026        47.35837        -2.29285
O         39.12084        46.32103         1.27956
H         39.84209        46.84248         1.68841
O         33.67069        39.76008         1.88912
H         34.31788        39.34402         2.49745
O         37.71224        46.18019        -2.04932
H         36.85800        45.82566        -2.37165
O         45.23263        29.40430        -2.21849
H         46.05206        29.06900        -2.64047
