         294
 CSIRO Nanostructure Databank - Neutral Graphene Oxide Data Set
C          1.31797         1.73587         0.40525
C          1.23952         3.19694         0.44163
C          2.34417         1.01658        -0.10486
C          2.24099         4.05327         0.78101
C          0.95455         6.32150         0.92776
C          0.94605         7.66897         0.87221
C          2.13374         5.52802         0.39435
C          2.15428         8.45783         0.50762
C          1.13058        10.62087        -0.13379
C          1.22208        12.01463        -0.52331
C          2.15548         9.95965         0.46971
C          2.30858        12.78688        -0.27685
C          1.14617        15.04352        -0.73376
C          1.19798        16.41232        -0.83734
C          2.40860        14.20424        -0.84315
C          2.42194        17.12743        -1.00746
C          2.52023        18.54130        -1.13365
C          3.56773         1.63473        -0.65444
C          3.57540         3.53934         1.16184
C          4.82363         1.24540        -0.26027
C          4.73445         4.10236         0.67119
C          3.44201         6.21296         0.84666
C          3.44943         7.71411         0.57110
C          4.68096         5.53123         0.18443
C          4.74602         8.39456         0.98128
C          3.40808        10.70183         0.79002
C          3.42342        12.25152         0.61135
C          4.70601         9.92819         0.93695
C          4.81935        12.81440         0.22828
C          3.54100        15.02507        -0.19291
C          3.66976        16.34071        -0.97162
C          4.86465        14.26719        -0.11216
C          4.98285        17.02877        -1.18915
C          3.69824        19.20793        -1.36670
C          5.02229        18.53412        -1.66482
C          6.03196         2.13576        -0.46113
C          6.02564         3.36883         0.47996
C          7.34967         1.41005        -0.39280
C          7.30326         4.14158         0.49468
C          5.96851         6.31161         0.42089
C          5.93251         7.66789         0.36899
C          7.29467         5.63857         0.77751
C          7.10520         8.39679        -0.21645
C          5.96926        10.61656         0.55177
C          6.03210        12.13071         0.87208
C          6.87562         9.88302        -0.14322
C          7.37523        12.93478         0.64692
C          6.04081        15.15831         0.29384
C          6.26183        16.33578        -0.71489
C          7.38626        14.43847         0.46355
C          7.32095        17.13802         0.06218
C          6.20435        19.28101        -1.11039
C          7.53139        19.07623        -1.55719
C          8.54722         2.08641        -0.27876
C          8.55859         3.52377         0.00436
C          9.79766         1.41067        -0.50818
C          9.73042         4.23941         0.06759
C          8.55467         6.38820         0.33892
C          8.49277         7.91591         0.45645
C          9.73915         5.70672         0.17441
C          9.78240         8.60696        -0.11880
C          8.81645        10.92744         0.01399
C          8.69919        12.30071         0.42771
C          9.83926        10.07720         0.29852
C          9.86997        13.02650         0.50794
C          8.65497        15.14033         0.04734
C          8.65593        16.50481        -0.18627
C          9.91337        14.43983         0.18931
C          9.82849        17.15260        -0.79167
C          8.66017        19.39403        -0.76710
C          9.97845        18.69747        -1.01012
C         11.01602         2.07478        -0.43170
C         11.00463         3.48508         0.03670
C         12.25412         1.43172        -0.70803
C         12.28805         4.23559         0.08020
C         11.04211         6.42760         0.16967
C         11.03367         7.83557         0.27023
C         12.26326         5.71176         0.11453
C         12.30195         8.56747         0.68172
C         11.08656        10.75067         0.71983
C         11.11443        12.26605         0.67966
C         12.31774        10.02823         0.20316
C         12.36089        12.92472         0.11808
C         11.12690        15.08366        -0.02925
C         11.15072        16.36946        -0.71908
C         12.41976        14.43251         0.41006
C         12.44294        17.17705        -0.86403
C         11.16430        19.20406        -0.19044
C         12.34323        18.52485        -0.16224
C         13.48914         2.11399        -0.76200
C         13.47095         3.59078        -0.57613
C         14.70978         1.47540        -1.02604
C         14.74664         4.35308        -0.67848
C         13.58790         6.36368         0.45189
C         13.55436         7.85225         0.18759
C         14.84658         5.71494        -0.11199
C         14.84338         8.59615         0.07701
C         13.61897        10.73457         0.57027
C         13.63045        12.23186         0.58124
C         14.91081        10.04115         0.39101
C         14.92682        12.98658         0.48800
C         13.66929        15.07447        -0.18383
C         13.67747        16.39391        -0.47710
C         14.89920        14.19607        -0.43631
C         14.97005        17.17188        -0.54764
C         13.59365        19.08020         0.36583
C         14.80937        18.50057         0.18295
C         15.98141         2.14316        -1.07851
C         16.02969         3.67006        -1.13638
C         17.16281         1.43637        -1.17249
C         17.26286         4.17767        -0.36580
C         16.05335         6.36560        -0.07331
C         16.12166         7.83633         0.04442
C         17.33865         5.68010        -0.20060
C         17.38805         8.49878         0.45978
C         16.09336        10.69901         0.59270
C         16.19210        12.18157         0.65351
C         17.35393         9.95024         0.83689
C         17.46350        12.82351         0.28526
C         16.24839        14.96992        -0.51564
C         16.09495        16.35060         0.14554
C         17.46599        14.20735         0.01392
C         17.38507        17.11904         0.06239
C         16.08108        19.14208         0.72264
C         17.38200        18.47901         0.28501
C         18.51385         2.02513        -0.81494
C         18.53923         3.56650        -0.95640
C         19.75710         1.50163        -1.50868
C         19.79671         4.13116        -0.34488
C         18.51456         6.25794         0.20268
C         18.52923         7.60363         0.91651
C         19.76573         5.42170         0.44137
C         19.88640         8.33896         0.87703
C         18.66466        10.66874         0.88539
C         18.72941        12.01602         0.16085
C         19.93582         9.84691         0.94098
C         19.94535        12.81598         0.50935
C         18.65357        14.93057        -0.00241
C         18.60660        16.38628        -0.26515
C         19.94855        14.30407         0.44105
C         19.94024        17.16111        -0.21919
C         18.62535        19.18375         0.40109
C         19.85650        18.54603         0.27532
C         20.90361         2.19981        -1.37719
C         20.95850         3.48770        -0.66460
C         22.22210         4.13852        -0.37864
C         21.06229         6.21700         0.27587
C         21.09814         7.59423         0.43266
C         22.25935         5.44858        -0.00171
C         22.29052         8.39314         0.19684
C         21.24138        10.58905         0.75997
C         21.23140        12.11801         0.68831
C         22.37106         9.74551         0.31809
C         22.43692        12.87407         0.24793
C         21.12744        14.90693        -0.45625
C         21.18371        16.38155        -0.05473
C         22.40167        14.13275        -0.21056
C         22.26900        17.00172         0.49902
C         21.08273        19.14070         0.73066
C         22.22763        18.39611         0.84164
O         20.06328         9.03683         2.15849
O         17.07572         8.38170        -0.95679
O          2.89164         8.02776        -0.73473
O          7.07022        17.89076         0.98734
O          3.97846        10.39713         2.11776
O         14.01346         8.25873        -1.13074
O         10.32428        16.39126        -1.92491
O          7.82265        10.56789        -0.89738
O         11.15655        11.51193         1.93652
O         11.79420         3.60916         1.31588
O         21.49340        11.40560         1.96250
O          7.51478        13.86864         1.79463
O          6.86302         3.29940         1.67547
O         17.90547        10.46394         2.10443
O         15.58583        12.99689         1.76935
O          5.06112        13.25230        -1.13859
O         13.76509         4.34442        -1.80964
O          4.38671        16.22183        -2.25880
O         13.55171        11.48858         1.81698
O         19.26116        16.88253        -1.49267
O         16.15752         4.02688        -2.53403
H         15.23983         4.06509        -2.89747
O         18.67749         1.62582         0.57543
H         17.94073         2.04433         1.08240
O          5.69148        15.71485         1.57840
H          6.16186        15.17732         2.26070
O         12.65511        17.46447        -2.27541
H         11.83785        17.94839        -2.58604
O          7.29922         5.78400         2.24162
H          7.04600         4.89831         2.60626
O         19.63398         4.99518         1.84728
H         19.33361         5.78876         2.36224
O          2.71200        14.07053        -2.25354
H          2.03471        13.49306        -2.66182
O         12.35466         8.61559         2.12160
H         12.60071         7.71751         2.44808
O         16.61156        15.15750        -1.88922
H         16.09457        15.91891        -2.25571
O          5.98171         2.73368        -1.80405
H          6.15871         2.02019        -2.45276
O          3.47988         5.97685         2.26488
H          4.21671         6.52464         2.63911
O          7.13225         8.01380        -1.60367
H          7.92716         8.43320        -2.01130
O         18.84544        11.59252        -1.26321
H         18.85242        12.40446        -1.81641
O         20.82202        14.76915        -1.83726
H         20.19384        15.49684        -2.08780
O         18.26863         7.29223         2.31626
H         18.66139         8.04245         2.83408
O         14.70897        13.64247        -1.76030
H         13.74793        13.43827        -1.89263
O         18.70529         3.90525        -2.35105
H         17.84208         3.80930        -2.81841
O          3.13264        12.79486         1.91560
H          3.74638        12.35046         2.54748
O          4.94933         8.10913         2.40952
H          4.48589         8.82082         2.91351
O          3.36053         2.62120        -1.55236
H          4.24203         2.99780        -1.81448
O         10.36364        18.89283        -2.39627
H          9.59539        18.59905        -2.94373
O         17.11286         3.70544         1.00826
H         17.87202         4.08486         1.52390
O         15.71793        16.14469         1.52108
H         15.69815        17.02297         1.97137
O         20.27666        14.81022         1.77097
H         19.79865        14.26265         2.43009
O         15.32554        17.46891        -1.91848
H         14.46712        17.63555        -2.39000
O          1.97864         5.54789        -1.05100
H          2.06241         6.49665        -1.32655
O          6.88478        15.78435        -1.88375
H          6.16536        15.39276        -2.43293
O         16.00909        19.02011         2.16412
H         16.84547        19.36378         2.54185
O         12.52213        14.61535         1.84065
H         13.31650        14.14239         2.17212
O          9.73686         8.54968        -1.57446
H         10.52537         9.04854        -1.89537
O          3.09449        15.35484         1.12990
H          3.88247        15.62470         1.66188
O         13.70625         6.23100         1.91701
H         13.42023         5.32309         2.16324
O          5.15197        18.48171        -3.11360
H          4.59181        17.72041        -3.40426
O          7.75038        18.42706        -2.73310
H          6.87044        18.26973        -3.16933
O          3.59714         2.43862         1.95460
H          4.52731         2.19085         2.13370
O          5.79585        12.21250         2.29495
H          6.57704        11.84992         2.76307
O         12.16482        10.06084        -1.24940
H         12.88651         9.47840        -1.62074
O         12.23430        12.78885        -1.32451
H         12.14992        11.82167        -1.54372
O          8.43434         8.26306         1.84291
H          7.94873         7.54703         2.32074
O          4.57562         5.56311        -1.25934
H          3.66478         5.25380        -1.49834
H          0.42754         1.19199         0.76467
H          0.27543         3.63069         0.12382
H          2.30829        -0.08260        -0.04565
H          0.05061         5.78475         1.25513
H          0.05823         8.23006         1.20230
H          0.22341        10.06934        -0.42053
H          0.38049        12.42266        -1.10479
H          0.16971        14.54728        -0.62710
H          0.26113        16.99058        -0.80386
H          1.59533        19.13068        -1.03020
H          4.90431         0.46264         0.50733
H          3.68285        20.30665        -1.41288
H          7.36451         0.33141        -0.61456
H          6.07057        19.79004        -0.14539
H          9.77398         0.34954        -0.79947
H          8.48951        19.88731         0.20044
H         12.24036         0.35281        -0.92663
H         11.09885        20.20841         0.25752
H         14.70855         0.37775        -1.12190
H         13.53084        20.05027         0.88586
H         17.10443         0.33417        -1.19383
H         16.10278        20.23711         0.45457
H         19.74245         0.52045        -2.00647
H         18.60462        20.23110         0.74163
H         21.84372         1.81134        -1.79875
H         23.15897         3.59375        -0.56622
H         23.23725         5.93871         0.10621
H         23.19861         7.86343        -0.12436
H         23.33621        10.23616         0.12494
H         23.40650        12.36755         0.36848
H         23.34074        14.61235        -0.52864
H         23.20503        16.45003         0.66437
H         21.07787        20.19889         1.03029
H         23.14504        18.86387         1.22529
