         300
 CSIRO Nanostructure Databank - Neutral Graphene Oxide Data Set
C         30.34563        31.72348        -0.79465
C         30.75581        32.65835        -0.12366
C         30.63582        35.77406         1.05070
C         30.44399        37.02139         1.18927
C         30.45065        39.99960         0.42459
C         30.40025        41.15792         0.00646
C         32.46935        29.19419        -1.18536
C         31.34606        29.68795        -1.52610
C         33.15921        31.44872         0.40637
C         30.18229        30.41376        -1.36537
C         33.04689        32.80788         0.47908
C         31.66993        33.38627         0.81608
C         32.97849        35.59900         1.15334
C         31.65094        34.89056         0.73340
C         32.91650        37.15441         1.23961
C         31.59784        37.91024         1.43222
C         32.77540        40.18826         0.97332
C         31.46150        39.42771         1.36107
C         32.76017        41.47320         0.54409
C         31.34242        42.26775         0.39274
C         32.69271        44.05866        -0.29184
C         31.62202        43.41093        -0.54989
C         36.10942        27.37435        -2.56398
C         35.82439        28.82366        -2.45192
C         33.75908        29.37099        -0.75654
C         35.51891        31.43767        -0.56489
C         34.10248        30.85759        -0.62909
C         35.48645        32.98931        -0.45454
C         34.34961        33.56513         0.43903
C         35.44732        35.85370         0.55843
C         34.12714        35.08103         0.24303
C         35.28768        37.32841         0.15641
C         34.03885        37.98335         0.66024
C         35.33621        40.20624         1.10470
C         34.06135        39.43119         1.09388
C         35.20334        41.75078         1.13938
C         34.08220        42.19051         0.18137
C         35.11825        44.59172         0.35137
C         33.95191        43.73249         0.17625
C         35.32196        45.87533        -0.33550
C         38.38549        27.33530        -1.54090
C         37.20136        26.85179        -2.30368
C         38.04868        28.82324        -1.26544
C         36.85449        29.44635        -1.51479
C         37.94219        31.64825        -1.15431
C         36.63826        30.86079        -1.08708
C         37.77985        33.18156        -1.00752
C         36.74951        33.74666        -0.06519
C         37.80877        35.96216        -0.42967
C         36.66936        35.11686         0.02487
C         37.76713        37.46108        -0.44280
C         36.51292        38.19162        -0.04180
C         37.92096        40.21080         0.77237
C         36.55310        39.60894         0.44349
C         37.88470        41.75044         0.80036
C         36.55684        42.46465         0.89676
C         37.71470        44.46278        -0.30599
C         36.49930        43.94182         0.51989
C         37.77176        46.01706        -0.74302
C         36.37864        46.49815        -0.47853
C         39.90582        24.59988         0.04162
C         38.88553        25.24251        -0.20202
C         39.81810        27.34738         0.63465
C         38.53684        26.68424        -0.14583
C         40.00897        28.81502         0.42258
C         39.24475        29.54457        -0.68209
C         40.11690        31.67155         0.26328
C         38.85808        30.92159        -0.13796
C         40.16729        33.13277         0.00600
C         39.17645        33.85401        -0.93076
C         40.30321        35.98896        -0.43464
C         39.12912        35.31040        -0.51699
C         40.37993        37.47854        -0.44790
C         39.07093        38.23758        -0.49890
C         40.32014        40.30792         0.27161
C         38.99747        39.74820        -0.24470
C         40.33741        41.81359         0.17271
C         39.07202        42.51259         0.36523
C         40.27153        44.78124         0.04383
C         39.01503        44.02189         0.46942
C         40.16456        46.26721         0.08249
C         38.92503        46.83047        -0.17270
C         40.04344        49.02214        -0.33686
C         39.07515        48.23990        -0.43525
C         42.41848        24.55165         0.74136
C         41.03385        24.99255         0.89057
C         42.33734        27.25183         1.55718
C         40.99855        26.53010         1.14302
C         42.38607        28.79848         1.39362
C         41.27518        29.53123         0.76951
C         42.66826        31.57059         0.54416
C         41.37221        30.89872         0.56626
C         42.74506        32.96070        -0.07742
C         41.50699        33.83674         0.25170
C         42.84306        35.91471        -0.31959
C         41.55592        35.19202        -0.43382
C         42.84904        37.41123        -0.32215
C         41.70712        38.15347        -0.22784
C         42.90108        40.43440         0.30919
C         41.63449        39.60201         0.16202
C         42.90002        41.93269         0.70963
C         41.62551        42.60279         0.30384
C         42.76866        44.92164         0.73958
C         41.60526        44.11775         0.20824
C         42.69601        46.41711         0.58582
C         41.45575        47.01881        -0.07030
C         42.70004        49.13783        -0.04314
C         41.42131        48.54596        -0.43185
C         43.45799        25.20911         0.80984
C         44.91663        27.24358         1.31334
C         43.62849        26.68748         0.74114
C         45.02202        28.74508         1.62777
C         43.74452        29.54502         1.45958
C         45.16464        31.59523         0.91435
C         43.83291        30.88686         0.84563
C         45.23841        32.98028         0.34598
C         43.97523        33.71744         0.31642
C         45.30330        35.90399         0.57807
C         44.00638        35.18121         0.31376
C         45.31877        37.44043         0.38854
C         44.28233        37.73622        -0.68519
C         45.30578        40.08078         0.00268
C         44.03948        40.01552        -0.53534
C         45.39233        42.10585         0.75133
C         44.12678        42.74953         0.62884
C         45.40863        44.91199         0.69790
C         44.08859        44.19725         1.08505
C         45.34366        46.45437         0.63146
C         44.03977        47.19516         0.64727
C         43.77600        48.56117         0.16021
C         47.33603        27.28866         1.05510
C         46.24178        26.73616         0.93616
C         47.67409        28.64955         1.47700
C         46.37765        29.45119         1.67168
C         47.85502        31.72266         1.46866
C         46.42740        30.95394         1.45925
C         47.87970        32.85672         0.39891
C         46.56188        33.67896         0.29882
C         47.68671        35.83336        -0.28800
C         46.65632        35.17813         0.67319
C         47.89919        37.31693        -0.01330
C         46.63669        38.08778         0.00663
C         47.77252        40.29125        -0.48322
C         46.58506        39.42086        -0.23612
C         47.85759        41.75051         0.10768
C         46.56237        42.61433         0.17038
C         47.80620        44.78068        -0.55365
C         46.62148        44.11752         0.21185
C         47.65974        46.22920        -0.15826
C         46.65043        46.88210         0.11007
C         49.97783        28.70789         0.27084
C         48.98419        29.30687         1.18575
C         50.37547        31.49147         0.69924
C         49.09781        30.82246         1.21995
C         50.41812        32.96002         0.32299
C         49.14405        33.81880         0.50743
C         50.27562        35.76470        -0.87186
C         49.01794        35.05297        -0.41737
C         50.34337        37.28106        -0.90688
C         49.13013        38.04186        -0.45967
C         50.35346        40.27873        -0.80049
C         49.04404        39.53473        -0.72419
C         50.37100        41.73413        -0.33890
C         49.04758        42.51128        -0.61329
C         50.43881        44.48317        -0.58322
C         49.08213        44.03846        -0.10516
C         51.11573        29.26768         0.15284
C         52.62065        31.39154        -0.12164
C         51.51942        30.59988         0.19963
C         52.79725        32.65261        -0.11639
C         51.62038        33.50303        -0.45314
C         52.72186        35.85459        -1.06989
C         51.60047        34.92591        -0.91502
C         52.66759        37.08959        -1.06268
C         51.53418        37.97870        -1.01074
C         52.76845        40.29389        -0.64360
C         51.61133        39.46217        -1.03326
C         52.79763        41.53443        -0.60495
C         51.72109        42.46058        -0.25646
C         51.52267        43.89528        -0.50861
O         50.91134        40.08682        -2.14710
O         47.18456        28.96919         2.78727
O         41.08790        44.46526        -1.12142
O         49.38235        35.06220        -1.81494
O         49.47672        30.00386         2.36457
O         44.42521        35.62810         1.70217
O         40.85623        39.67813         1.43877
O         35.88808        44.65953         1.60925
O         37.36079        42.25265         2.12664
O         44.80286        47.01496         1.84652
O         42.89008        32.73472        -1.56330
O         37.02989        33.54961        -2.25568
O         34.85250        39.58876         2.32919
O         36.29878        39.31941        -0.95140
O         44.60681        37.72519        -1.87526
O         41.62462        47.53508        -1.43199
O         42.85300        29.46397         2.60946
O         51.46601        33.81998        -1.84035
O         40.63133        25.50997         2.14256
O         39.28441        28.31066         1.58574
O         39.66273        32.65765         1.28863
O         35.52308        33.41679        -1.88919
O         42.34269        45.79172         1.83789
O         44.89986        27.72102         2.65994
O         43.02343        40.84835         1.67641
O         45.94210        33.31817        -0.96927
O         37.49397        36.70558        -1.66796
O         39.79955        37.98059        -1.72901
O         45.40977        40.77989         1.22379
O         34.22173        37.70070        -0.75476
O         46.49351        44.55213         1.61564
O         48.21159        40.00202        -1.85513
O         50.85956        32.48986         1.63575
O         51.00878        42.03085         0.94072
O         48.87833        37.73082         0.97437
O         45.53679        31.66104         2.35470
O         42.42275        35.31631        -1.59245
O         35.01375        29.47464        -3.07056
O         41.17343        42.11385        -1.01412
O         32.45929        37.55920         2.56894
O         34.56739        28.36016        -0.34948
H         35.36155        28.68580         0.12141
O         33.17980        35.12319         2.50861
H         32.87949        35.85738         3.10325
O         47.99332        32.27733         2.76927
H         48.19506        31.54305         3.39149
O         32.25803        30.63049         0.98136
H         31.66460        31.16952         1.55839
O         31.10604        39.88151         2.67392
H         31.55747        39.30586         3.32966
O         33.69429        35.29346        -1.09546
H         34.34136        34.89394        -1.72261
O         39.61409        27.17067        -2.20429
H         39.58247        27.60485        -3.08075
O         38.28767        39.72316         2.06844
H         38.01720        40.39099         2.73798
O         35.65659        35.92186         1.98792
H         35.67395        34.98991         2.31889
O         49.27945        34.42686         1.78378
H         49.21893        33.72829         2.47849
O         38.68513        40.38762        -1.48277
H         39.08851        39.86947        -2.21374
O         37.62577        43.67505        -1.48886
H         38.13223        44.11555        -2.20817
O         38.88490        44.43606         1.84672
H         38.23997        43.83753         2.30077
O         34.75500        42.14973         2.43283
H         35.50428        42.06340         3.06085
O         39.76963        33.81595        -2.24881
H         39.41342        34.56530        -2.77396
O         30.97277        42.75232         1.64098
H         30.78139        41.98985         2.23322
O         33.60994        31.47814        -1.85954
H         34.00401        30.98028        -2.61734
O         44.85216        38.05341         1.59633
H         45.42946        37.78634         2.34142
O         48.24678        41.50507         1.46558
H         48.25555        42.36802         1.94231
O         41.61116        34.15754         1.65120
H         41.08721        33.49421         2.15891
O         28.94949        29.97171        -1.69886
H         28.99539        29.04960        -2.01955
O         49.11805        44.05567         1.30581
H         49.97526        43.66607         1.59936
O         38.06420        30.68708         1.03856
H         38.29039        31.37247         1.70695
O         34.94842        33.34676         1.76876
H         34.24268        33.52432         2.43503
O         43.49370        27.13845        -0.60704
H         44.11294        26.63965        -1.18033
O         42.49496        26.92756         2.91913
H         42.93726        27.67794         3.38129
O         38.02620        46.02087        -2.14909
H         38.19521        46.94337        -2.43661
O         48.86547        42.55173        -2.02059
H         48.77969        41.62627        -2.36452
O         37.37225        26.95893         0.58612
H         37.47322        26.60425         1.49398
O         41.76684        31.94590        -2.01008
H         41.18819        32.62176        -2.45953
O         40.21529        29.66888        -1.73636
H         39.87432        30.32119        -2.39475
O         44.08321        44.09011         2.52245
H         45.02053        44.03788         2.82096
O         48.07370        32.13157        -0.82957
H         47.41068        32.46617        -1.48614
O         47.01073        35.79441        -1.55761
H         47.68592        35.65241        -2.26363
O         31.28373        32.99575         2.16738
H         31.76211        33.59808         2.78316
O         47.55020        44.66275        -1.93302
H         48.38519        44.75987        -2.43669
O         43.69974        39.99358        -1.86681
H         44.28919        39.38893        -2.38193
O         34.46382        41.78891        -1.13958
H         33.75085        42.03059        -1.76834
O         47.04234        35.30928         2.03702
H         46.24392        35.15095         2.58918
O         38.49690        31.47392        -2.47615
H         37.99561        32.08171        -3.07153
