         470
 CSIRO Nanostructure Databank - Neutral Graphene Oxide Data Set
C         37.84341        50.55429         1.53087
C         36.97336        51.36274         2.19290
C         37.95401        53.39797         1.27684
C         37.02504        52.79518         2.06389
C         40.02717        48.89344         0.55613
C         39.94708        50.28069        -0.02714
C         38.74359        51.09053         0.49985
C         40.08240        53.21610        -0.09569
C         38.80663        52.60630         0.37776
C         40.14028        54.57553        -0.41698
C         42.47977        48.90700         0.53910
C         41.20041        48.26615         0.78609
C         42.47323        50.26877         0.21000
C         41.26459        51.04127         0.12133
C         42.55743        53.19807        -0.07713
C         41.27997        52.43505        -0.05828
C         42.58794        54.60963        -0.55176
C         41.34457        55.23923        -0.71059
C         44.92965        46.09831         1.20648
C         43.74463        46.80512         1.07935
C         44.99063        48.77217         0.42928
C         43.72781        48.16183         0.67277
C         45.04575        50.16685        -0.05639
C         43.75025        50.92584        -0.13235
C         45.10579        53.02828        -0.47723
C         43.82023        52.40953        -0.03455
C         45.09957        54.49863        -0.80996
C         43.83284        55.26236        -0.79876
C         45.15511        57.24062        -1.41734
C         43.94298        56.63881        -1.12438
C         47.42617        44.54948         1.27810
C         47.44018        45.94611         1.04004
C         46.18498        46.70192         0.96036
C         47.49915        48.73900         0.24098
C         46.19716        48.07035         0.61680
C         47.47514        50.23625         0.42668
C         46.31395        50.93077         0.12204
C         47.54770        53.09933         0.16043
C         46.32096        52.34138        -0.02212
C         47.59786        54.57597        -0.34830
C         46.37812        55.21938        -0.84691
C         47.68456        57.16339        -1.56628
C         46.40726        56.55114        -1.28316
C         47.81456        58.50446        -1.93076
C         49.86173        44.46140         1.36816
C         48.59486        43.82860         1.42700
C         49.90493        45.86108         1.10963
C         48.68965        46.59578         0.91695
C         49.93544        48.71001         0.83827
C         48.74401        48.04036         0.74897
C         49.97125        50.18322         0.97949
C         48.71597        50.97497         0.73451
C         50.02976        53.04888         0.11757
C         48.82912        52.39410         0.31382
C         50.08974        54.37984        -0.48247
C         48.90788        55.06708        -0.77233
C         50.24807        56.95032        -1.85907
C         48.89850        56.31039        -1.56426
C         50.27924        58.41563        -2.07463
C         49.05471        59.11000        -2.16140
C         52.26467        41.58722         1.66246
C         51.08855        42.30720         1.64334
C         52.34208        44.40541         1.52664
C         51.09435        43.72116         1.51749
C         52.34585        45.83433         1.36843
C         51.17278        46.53020         1.10135
C         52.48221        48.72808         1.01466
C         51.23250        47.96513         0.63914
C         52.51840        50.12064         0.83493
C         51.27454        50.91051         0.90173
C         52.58820        52.92933         0.01613
C         51.30556        52.37692         0.47421
C         52.60873        54.25420        -0.53042
C         51.38623        54.96776        -0.79431
C         52.71279        56.89930        -1.56931
C         51.47095        56.26524        -1.37201
C         52.76219        58.19599        -2.36070
C         51.53134        59.05498        -2.19605
C         52.86917        61.07435        -2.53483
C         51.65168        60.46181        -2.34711
C         54.79103        40.07981         1.42858
C         54.73936        41.46401         1.39793
C         53.52178        42.23164         1.56898
C         54.84543        44.32892         1.59650
C         53.57258        43.65705         1.57270
C         54.86573        45.77757         1.87279
C         53.59512        46.57970         1.65641
C         54.89573        48.72257         1.36043
C         53.67464        48.03010         1.32831
C         54.95774        50.10835         0.98799
C         53.74843        50.82506         0.75040
C         55.05185        52.80943         0.07861
C         53.79112        52.20216         0.30062
C         55.14325        54.08487        -0.72548
C         53.85630        54.88637        -0.78396
C         55.21687        56.82965        -1.51449
C         53.91221        56.21649        -1.24839
C         55.31830        58.13725        -2.28337
C         54.05729        58.96277        -2.23384
C         55.36960        61.02901        -2.66530
C         54.09734        60.32522        -2.48291
C         55.50057        62.21351        -3.35397
C         57.23928        39.96105         1.26874
C         56.01711        39.35007         1.40883
C         57.26030        41.39273         0.93993
C         55.96349        42.20395         1.05796
C         57.34009        44.29228         1.39534
C         56.05581        43.64770         1.36652
C         57.42777        45.72646         1.52449
C         56.18234        46.49417         1.82193
C         57.40779        48.63861         1.15505
C         56.15606        47.98605         1.64235
C         57.43673        50.12096         1.30707
C         56.19537        50.82242         0.92124
C         57.55157        52.82780         0.33642
C         56.25104        52.15217         0.45800
C         57.62151        54.17702        -0.19351
C         56.32317        54.96021        -0.28975
C         57.68075        56.75361        -1.60791
C         56.37281        56.20744        -1.15729
C         57.81987        58.21075        -1.81545
C         56.54204        58.92162        -1.82660
C         57.89436        61.01463        -2.34942
C         56.57773        60.41591        -2.10146
C         57.93046        62.32601        -2.95080
C         56.75965        62.86997        -3.45921
C         59.72277        37.10511         1.38611
C         58.57551        37.79721         1.58075
C         59.77048        39.90980         1.02113
C         58.55044        39.30076         1.68306
C         59.73268        41.36216         0.73114
C         58.52102        42.14178         1.03735
C         59.87141        44.18795         1.33157
C         58.54745        43.51911         1.19561
C         59.91890        45.71801         1.47496
C         58.63300        46.41667         1.40575
C         59.97714        48.59114         1.13419
C         58.67911        47.86636         1.11828
C         60.01210        49.99984         1.09079
C         58.75988        50.80917         1.21989
C         60.00252        52.91154         0.68586
C         58.72551        52.19241         0.70826
C         60.09315        54.15316        -0.07871
C         58.85118        54.76433        -0.46878
C         60.22020        56.72936        -1.35054
C         58.91939        56.03894        -1.21894
C         60.36656        58.11502        -1.98067
C         59.03757        58.87249        -1.89257
C         60.40212        60.94306        -2.36940
C         59.06091        60.28941        -2.12232
C         60.33724        62.44645        -2.34383
C         59.19598        63.06205        -2.91346
C         60.44639        65.10994        -3.17203
C         59.25781        64.40843        -3.31740
C         62.31500        35.67175         1.37679
C         62.21601        37.06514         1.03905
C         60.99206        37.75935         1.12544
C         62.24363        39.88319         0.73639
C         60.94112        39.18708         0.89831
C         62.27853        41.36804         0.62618
C         61.00279        42.12140         0.48704
C         62.32049        44.22632         0.82577
C         61.09104        43.55173         0.84111
C         62.36203        45.67108         0.97261
C         61.17644        46.40971         1.14380
C         62.43423        48.52160         0.94583
C         61.18596        47.84267         1.06683
C         62.46495        49.94312         0.89869
C         61.25204        50.66716         0.96101
C         62.55869        52.79224         0.46774
C         61.29825        52.13874         0.86522
C         62.60806        54.14869         0.02294
C         61.33714        54.70473        -0.42269
C         63.09761        56.99397        -0.96493
C         61.28504        55.88197        -1.26004
C         62.76008        58.35713        -0.84834
C         61.54940        58.95709        -1.40492
C         62.46503        61.21349        -0.87971
C         61.49187        60.34653        -1.50090
C         62.48813        62.61031        -1.07028
C         61.47659        63.20467        -1.97811
C         62.78991        65.83193        -1.06813
C         61.51173        64.52797        -2.47730
C         62.83529        67.22363        -0.95455
C         64.54221        35.45352         0.37952
C         63.42297        34.91125         1.08437
C         64.69123        36.95057         0.41629
C         63.42366        37.74034         0.55981
C         64.59635        39.82636        -0.29129
C         63.45104        39.09530         0.39644
C         64.74406        41.25317         0.32208
C         63.47372        42.09262         0.03000
C         64.75025        44.21149         0.36400
C         63.55084        43.53557         0.50025
C         64.81311        45.64271         0.50973
C         63.61426        46.35819         0.78731
C         64.90215        48.46143         0.76476
C         63.65053        47.77958         0.83469
C         64.94286        49.89960         0.84831
C         63.72962        50.64070         0.86612
C         64.94401        52.82772         0.96874
C         63.72974        52.06285         0.72016
C         65.00909        54.25868         0.66001
C         63.87211        54.87125         0.08544
C         65.01594        57.08436         0.49405
C         63.99894        56.30717        -0.13707
C         64.85863        58.50441         0.41169
C         63.72302        59.12574        -0.14998
C         64.40724        61.43017         0.79592
C         63.44422        60.57431         0.03899
C         64.22028        62.93309         0.82561
C         63.22953        63.47215        -0.15590
C         64.26402        66.03914         1.29878
C         62.96968        64.85979        -0.04932
C         64.23648        67.46582         1.07509
C         63.44449        67.99672         0.07131
C         67.14999        32.84971        -0.52285
C         65.91013        33.31079        -0.12220
C         67.31454        35.81992        -0.77265
C         65.46430        34.66009        -0.30149
C         67.26836        37.06047        -0.23786
C         65.98175        37.70862         0.13888
C         67.09455        39.84263        -0.56065
C         65.95192        39.15608        -0.20690
C         66.92635        41.27864        -1.11559
C         66.00634        42.00550        -0.11042
C         67.12450        44.25067        -0.59371
C         65.98879        43.49053        -0.02798
C         67.21778        45.65876        -0.22240
C         66.04870        46.33955         0.34250
C         67.42969        48.41876         0.77900
C         66.09605        47.73218         0.55783
C         67.42126        49.92153         0.50824
C         66.20508        50.57070         0.74986
C         67.47033        52.76586         0.81161
C         66.25395        52.00145         1.00087
C         67.35114        54.11936         1.23393
C         66.21721        54.96455         1.02988
C         67.20661        57.31320         1.55325
C         66.18639        56.44172         1.08083
C         67.13748        58.73486         1.45993
C         65.97396        59.37357         0.82578
C         66.84802        61.63246         1.71639
C         65.77802        60.85618         1.01249
C         66.71978        63.14454         1.81331
C         65.38471        63.81208         1.46892
C         66.68164        66.06551         1.49198
C         65.41564        65.29375         1.40233
C         66.56071        67.46431         2.04340
C         65.28141        68.21644         1.80424
C         66.52846        70.33918         1.69629
C         65.35376        69.69987         1.79423
C         69.56046        31.41501        -1.38483
C         69.57284        32.82254        -1.19544
C         68.35543        33.56084        -0.91522
C         69.73254        35.63178        -0.76753
C         68.47543        34.96715        -0.82771
C         69.78963        37.05907        -0.36780
C         68.52620        37.82207         0.07330
C         69.56265        39.96569        -0.77669
C         68.41690        39.23684        -0.51798
C         69.53260        41.40037        -0.95173
C         68.25861        42.07536        -1.40945
C         69.47973        44.25392        -1.22195
C         68.23855        43.54963        -1.01860
C         69.37162        45.74152        -1.46715
C         68.38071        46.35347        -0.47776
C         69.81538        48.47234        -0.21739
C         68.59937        47.68399         0.12562
C         69.82215        49.95341        -0.05690
C         68.63282        50.67209         0.30706
C         69.91637        52.82827         0.07355
C         68.69328        52.11454         0.44678
C         70.06825        54.27182         0.03273
C         69.32428        55.14123         0.92088
C         70.18318        57.52223         0.59205
C         69.32698        56.48966         1.13930
C         70.16916        58.80423         1.17684
C         68.20768        59.58901         1.79341
C         69.37279        61.79614         1.62141
C         68.19322        61.00422         1.65352
C         69.25212        63.23881         1.78209
C         68.00153        63.88507         1.77332
C         69.17149        66.13725         2.08146
C         67.98647        65.35629         1.65111
C         69.10864        67.53188         2.24434
C         67.80841        68.29426         2.37240
C         69.06489        70.41688         1.94721
C         67.84881        69.59618         1.53469
C         69.08704        71.80941         1.79683
C         71.93066        31.40028        -1.86241
C         70.70967        30.71761        -1.71066
C         71.97598        32.77277        -1.70014
C         70.81389        33.51837        -1.37191
C         72.04724        35.72367        -1.56780
C         70.89240        34.94871        -1.16822
C         72.05022        37.08328        -1.53988
C         71.01386        37.83491        -0.81418
C         72.04508        40.13683        -0.51960
C         70.90541        39.32396        -1.09102
C         71.94973        41.48227        -0.52566
C         70.70944        42.14018        -0.92613
C         71.91228        44.28969        -1.51403
C         70.68492        43.57144        -1.21034
C         71.92880        45.62142        -1.75150
C         70.72296        46.46069        -1.57692
C         72.20406        48.53017        -0.88201
C         70.88773        47.87315        -1.08222
C         72.22904        49.84477        -0.57453
C         71.01038        50.61604        -0.33671
C         72.11589        52.68116        -1.05580
C         71.02418        52.05766        -0.41033
C         72.10586        54.04216        -1.31773
C         71.09305        54.83901        -0.76804
C         71.79343        58.40357        -1.01569
C         71.04612        57.32799        -0.51148
C         71.68911        59.68162        -0.45486
C         70.84975        59.91224         0.65175
C         71.77868        62.08554         1.23574
C         70.65918        61.26091         1.22453
C         71.69557        63.43258         1.61716
C         70.46619        64.03490         1.85501
C         71.57198        66.21972         2.42365
C         70.41268        65.46613         2.13935
C         71.51338        67.60124         2.54344
C         70.28601        68.28518         2.44122
C         71.31900        70.53023         2.85695
C         70.21730        69.75695         2.44539
C         71.30614        71.91918         2.74404
C         70.19712        72.56052         2.19085
O         65.56337        52.42193         2.22421
O         66.56010        62.26130         2.98765
O         66.62093        42.61618         1.05255
O         54.05873        46.21392         3.00563
O         56.50258        41.80551        -0.24714
O         68.39191        56.84827         2.15760
O         49.17124        50.66114         2.11334
O         71.10581        56.15695        -1.26137
O         65.60347        37.36300         1.52188
O         56.35362        59.86721        -0.74495
O         66.33914        60.34992        -0.25019
O         63.29273        60.81602         1.50956
O         65.56693        67.57030         3.10767
O         38.05502        51.79373        -0.59326
O         58.33174        55.87933        -2.59833
O         66.22788        41.20218        -2.33237
O         60.03577        44.83401         2.63775
O         62.45671        56.23002        -1.94252
O         69.38830        59.03496         2.32049
O         62.65097        65.34351        -2.37289
O         64.23172        63.34677         2.21882
O         56.33010        47.40438         2.96820
O         66.13274        35.32578        -1.34037
O         70.88773        37.37749         0.56535
O         67.52573        65.88621         0.31056
O         49.53520        56.19282        -2.88966
O         60.68638        52.86997         1.98883
O         62.43675        40.78347         1.93674
O         68.51653        54.51909         1.88211
O         45.10933        53.42349        -1.89026
O         69.77308        47.70754         1.05154
O         47.44707        54.24375         1.07283
O         58.07902        50.61433         2.52262
O         60.19184        41.73793        -0.65595
O         44.38129        50.39533        -1.34907
O         63.02916        65.38251         1.25430
O         43.31592        52.97693         1.20439
O         57.88397        48.17659        -0.14080
O         51.37233        51.97279         1.89264
O         70.60301        47.61557        -2.49856
O         68.43409        42.08117        -2.85116
H         67.54124        41.79633        -3.20557
O         39.75784        50.10080        -1.45650
H         39.10957        50.79059        -1.74131
O         71.01488        39.40579        -2.54966
H         70.77323        40.32113        -2.81321
O         64.85073        41.01732         1.72670
H         65.49735        41.66656         2.09354
O         60.78422        60.65213        -3.75537
H         60.75198        59.66600        -3.86938
O         67.73414        68.70176         3.75500
H         66.82720        68.47628         4.07612
O         63.25191        42.23469        -1.38326
H         63.35772        41.33958        -1.80309
O         64.18215        39.82666        -1.67990
H         64.95526        40.22576        -2.20244
O         68.72181        45.87644        -2.76615
H         69.07650        46.69730        -3.17930
O         47.62198        48.55499        -1.22666
H         46.78629        48.87244        -1.63527
O         67.61003        48.33456         2.22258
H         68.58037        48.23704         2.37869
O         68.59386        38.01741         1.50144
H         69.54914        38.07939         1.73547
O         56.01756        55.38854         1.06544
H         56.78063        55.88870         1.42234
O         51.34729        47.87740        -0.83881
H         50.52397        47.45937        -1.17452
O         58.66569        39.63953         3.11510
H         59.53069        39.29779         3.42907
O         60.64685        57.93127        -3.40176
H         61.39998        57.30068        -3.46261
O         55.55075        57.81947        -3.68453
H         54.70770        57.44065        -4.03188
O         67.98437        69.21940         0.14462
H         68.18829        70.02293        -0.37672
O         55.43222        53.66656        -2.09211
H         54.65596        53.17961        -2.43893
O         52.74668        57.73814        -3.78177
H         52.50283        58.51221        -4.33405
H         37.88442        49.48489         1.78069
H         36.28394        50.93142         2.93234
H         38.09995        54.48700         1.32342
H         36.37301        53.40176         2.70803
H         39.09150        48.32586         0.66369
H         39.20356        55.14796        -0.47393
H         41.17922        47.22544         1.13713
H         41.29437        56.28455        -1.04438
H         44.87264        45.04326         1.50476
H         42.80501        46.27740         1.28713
H         45.15447        58.29947        -1.70883
H         43.03360        57.25420        -1.17424
H         46.47099        44.01352         1.35060
H         46.91804        59.13600        -1.99691
H         48.52196        42.74924         1.61223
H         49.05876        60.18231        -2.39771
H         52.21347        40.49171         1.71050
H         50.13837        41.75937         1.68265
H         52.91283        62.16462        -2.65898
H         50.74982        61.08800        -2.30908
H         53.87386        39.50236         1.60908
H         54.62427        62.68964        -3.81635
H         55.95870        38.27437         1.62606
H         56.77989        63.84099        -3.97170
H         59.68466        36.00596         1.39490
H         57.64852        37.24165         1.78346
H         60.54724        66.13761        -3.54335
H         58.39347        64.89912        -3.78265
H         61.45300        35.17688         1.84494
H         62.55531        67.77665        -1.86353
H         63.39683        33.82747         1.27598
H         63.46657        69.08648        -0.08205
H         67.29725        31.77245        -0.35015
H         65.24591        32.59926         0.39277
H         66.52793        71.43974         1.69579
H         64.41294        70.26625         1.87738
H         68.62087        30.85438        -1.29251
H         68.22280        72.33585         1.36686
H         72.84449        30.84338        -2.11103
H         70.66849        29.62907        -1.85450
H         72.93925        33.28757        -1.81469
H         72.88212        35.20757        -2.06199
H         72.85310        37.64760        -2.03496
H         72.96864        39.63021        -0.20487
H         72.79454        42.10126        -0.18877
H         72.84374        43.71484        -1.61684
H         72.86620        46.11959        -2.03654
H         73.13601        47.97898        -1.06968
H         73.19810        50.35325        -0.47091
H         72.93584        52.06988        -1.45296
H         72.89330        54.50731        -1.92380
H         72.43051        58.24195        -1.89451
H         72.23973        60.51523        -0.91199
H         72.75526        61.67413         0.94568
H         72.62073        64.02149         1.64986
H         72.54690        65.72514         2.52538
H         72.44624        68.15687         2.70955
H         72.20585        70.04091         3.28243
H         72.17433        72.50487         3.07623
H         70.18773        73.65294         2.07499
