         210
 CSIRO Nanostructure Databank - Neutral Graphene Oxide Data Set
C         30.57100        32.25309         1.69993
C         30.63371        33.33898         1.06998
C         30.53002        36.16681        -0.37544
C         30.51153        37.30055        -0.89587
C         30.63373        40.30637        -2.11496
C         30.57158        41.54875        -1.97787
C         33.04903        29.55440         2.37297
C         31.93171        30.12691         2.32677
C         32.98385        32.08375         1.45937
C         31.75935        31.44632         1.84623
C         33.00049        33.59167         1.21042
C         31.68502        34.17155         0.65067
C         32.90174        36.10857        -0.32111
C         31.66663        35.39720         0.00843
C         32.87898        37.41416        -0.90532
C         31.63913        38.08638        -1.26232
C         32.94233        39.93457        -2.15213
C         31.66813        39.34193        -1.90527
C         32.87535        42.10623        -1.94455
C         31.53293        42.54416        -1.66169
C         32.62367        44.14794        -0.34281
C         31.55520        43.68329        -0.80631
C         35.78714        28.04626         2.56658
C         35.54983        29.34610         2.04824
C         34.31740        30.03856         1.99123
C         35.43838        31.97070         0.93878
C         34.23409        31.38649         1.48594
C         35.38687        33.34255         0.41284
C         34.19575        34.09938         0.44155
C         35.36397        36.07224        -0.48908
C         34.14733        35.42357        -0.10594
C         35.33810        37.41588        -0.95324
C         34.12589        38.09882        -1.12957
C         35.30987        40.32044        -1.48665
C         34.14205        39.46695        -1.61457
C         35.28101        41.71312        -1.30550
C         34.05318        42.51161        -1.27233
C         35.09622        44.24741         0.17211
C         33.97153        43.69523        -0.42964
C         35.20761        45.34880         1.04561
C         38.09351        27.85211         1.99080
C         36.86999        27.42337         2.57500
C         37.98910        29.18373         1.46337
C         36.74273        29.91881         1.49964
C         37.82811        31.73519         0.20618
C         36.63302        31.22349         0.91033
C         37.80330        33.18595        -0.26780
C         36.57491        33.96569        -0.06259
C         37.84664        35.97253        -0.66888
C         36.59703        35.33764        -0.40015
C         37.86080        37.36582        -1.14856
C         36.58085        38.08787        -1.40128
C         37.73765        40.24846        -0.71002
C         36.65647        39.61682        -1.62752
C         37.90911        41.74474        -1.03670
C         36.54823        42.45856        -0.99069
C         37.65704        44.30449         0.52108
C         36.46380        43.76251        -0.19885
C         37.56682        45.47224         1.31183
C         36.21930        45.93542         1.48648
C         40.55725        25.08598         2.71982
C         39.57982        25.82369         2.39666
C         40.40120        27.65111         1.13845
C         39.28066        27.08849         1.85197
C         40.39760        29.05171         0.82798
C         39.18320        29.78871         0.92527
C         40.32855        31.75592        -0.03711
C         39.14452        31.10826         0.40125
C         40.30536        33.15462        -0.39721
C         39.09237        33.87151        -0.41112
C         40.31670        35.97978        -0.80703
C         39.06982        35.27976        -0.61648
C         40.31898        37.40881        -0.85395
C         39.10261        38.13908        -0.94646
C         40.27833        40.21692        -0.46264
C         39.07384        39.52226        -0.76779
C         40.22037        41.62748        -0.06794
C         39.01255        42.35098        -0.16359
C         40.10543        44.26352         0.97300
C         38.92942        43.64931         0.41464
C         40.03091        45.54154         1.62535
C         38.73008        46.10522         1.82610
C         39.81047        48.01708         2.82993
C         38.80281        47.34579         2.49456
C         43.09177        24.95042         2.17576
C         41.70639        24.93489         1.91065
C         42.81437        27.54187         0.61805
C         41.56022        26.90065         0.80718
C         42.82599        28.95108         0.33441
C         41.59567        29.67748         0.35077
C         42.79525        31.71978        -0.39970
C         41.58046        31.05893        -0.01913
C         42.74966        33.11065        -0.73876
C         41.54375        33.83100        -0.68305
C         42.75018        36.01074        -0.98388
C         41.53284        35.27176        -0.85715
C         42.76868        37.39482        -0.84629
C         41.54128        38.11504        -0.74469
C         42.75169        40.16766        -0.12938
C         41.51138        39.52055        -0.48797
C         42.64448        41.43926         0.67490
C         41.38545        42.24974         0.45072
C         42.58695        44.25753         1.33486
C         41.35818        43.58448         0.89321
C         42.50252        45.61356         1.85813
C         41.23008        46.23744         2.04905
C         42.39903        48.18636         2.84716
C         41.13673        47.58082         2.62382
C         43.89497        25.60138         1.43438
C         45.27528        27.50173         0.45345
C         44.06361        26.84829         0.81341
C         45.28179        28.87830         0.01855
C         44.04880        29.61328         0.00361
C         45.28441        31.62711        -0.70503
C         44.03846        30.99260        -0.38091
C         45.28025        33.03988        -1.16289
C         43.98081        33.78752        -1.22578
C         45.19100        35.91967        -0.52721
C         44.04263        35.31927        -1.34636
C         45.25753        37.38593        -0.42983
C         44.06396        38.17460        -0.94617
C         45.21657        40.17060         0.06303
C         43.97131        39.52888        -0.27989
C         45.18291        41.63019         0.29811
C         43.87271        42.30191         0.53378
C         45.08698        44.17764         1.76641
C         43.80937        43.62828         1.19404
C         44.99275        45.70425         1.92018
C         43.74344        46.30969         2.11744
C         43.48608        47.63024         2.56760
C         47.59677        27.47308        -0.08797
C         46.56491        26.94030         0.40537
C         47.71725        28.78727        -0.55473
C         46.49311        29.50845        -0.42414
C         47.77238        31.60562        -0.90904
C         46.48627        30.91483        -0.75010
C         47.80402        33.02696        -0.79425
C         46.58767        33.84303        -1.17346
C         47.71708        35.90949        -0.12252
C         46.47758        35.14876        -0.39221
C         47.67369        37.27622         0.09512
C         46.43289        38.02743        -0.08145
C         47.67957        40.22177         0.22852
C         46.43153        39.48881         0.07254
C         47.66873        41.64970         0.43760
C         46.43532        42.33057         0.65363
C         47.60204        44.39047         1.21021
C         46.37854        43.64787         1.12835
C         47.42715        45.72448         1.70636
C         46.28782        46.21771         1.93209
C         50.20632        28.78285        -1.07170
C         48.85209        29.39690        -1.31980
C         50.23742        31.56709        -0.83963
C         48.98242        30.89233        -0.97579
C         50.24374        32.98253        -0.57807
C         49.00362        33.69744        -0.54284
C         50.26989        35.82029         0.22214
C         48.96575        35.10333        -0.03883
C         50.24376        37.32707         0.39487
C         48.91254        38.05909         0.38333
C         50.15078        40.26730         0.21187
C         48.91114        39.54165         0.21686
C         50.15176        41.70681         0.31843
C         48.89583        42.37493         0.53580
C         50.10788        44.37093         0.78878
C         48.82216        43.78525         0.83923
C         51.26865        29.42129        -1.07526
C         52.63831        31.62042        -0.82750
C         51.49966        30.81824        -0.91362
C         52.58439        32.87398        -0.65998
C         51.49117        33.72384        -0.46068
C         52.56282        36.02743        -0.35833
C         51.51809        35.12303        -0.23200
C         52.52749        37.29543        -0.24966
C         51.45783        38.13159         0.04004
C         52.48554        40.42685        -0.04752
C         51.39617        39.54086         0.06479
C         52.54339        41.67677         0.06015
C         51.39671        42.47052         0.28854
C         51.22163        43.85471         0.53409
O         49.60685        37.71106         1.64157
O         49.58795        35.14047         1.30702
O         36.64006        43.74594        -1.67210
O         32.99850        41.10866        -2.92908
O         44.45057        42.34763        -0.80330
O         37.59292        32.06880        -1.20417
O         37.25351        37.39875        -2.51665
O         45.49645        35.15937         0.69098
O         41.44663        25.51330         0.58951
O         44.53982        33.14991        -2.43328
O         45.14877        43.66869         3.14537
H         45.95086        44.04692         3.56632
O         44.31709        38.41497        -2.36187
H         44.32141        37.53126        -2.80833
O         37.01571        39.84316        -2.99594
H         37.35001        38.98965        -3.36383
O         37.23414        40.13370         0.64460
H         37.92063        40.46917         1.25932
O         33.13172        34.19292         2.54316
H         32.36393        33.89540         3.07799
O         44.29789        35.66255        -2.73210
H         44.77386        34.89074        -3.13135
O         42.61619        41.02725         2.08023
H         41.82892        40.45996         2.21674
O         46.83573        34.27169        -2.54412
H         46.82673        33.47465        -3.11669
O         48.54336        29.31948        -2.71781
H         48.35592        28.38457        -2.94396
O         38.41365        41.86650        -2.37757
H         38.13149        42.74389        -2.71830
