         630
 CSIRO Nanostructure Databank - Neutral Graphene Oxide Data Set
C         23.10965        27.54039         1.74474
C         23.07569        28.89163         1.48586
C         22.99048        31.73725         0.86344
C         22.98427        33.12514         0.80241
C         22.99505        36.01658         0.43072
C         22.98418        37.40564         0.26346
C         22.95187        40.32424        -0.09766
C         22.95339        41.69746        -0.16174
C         22.95615        44.64020        -0.02998
C         22.95346        45.99613        -0.03962
C         25.48731        24.68377         1.59171
C         24.32950        25.39772         1.78334
C         25.43114        27.43237         0.93524
C         24.28412        26.78868         1.48866
C         25.37348        28.82506         0.65744
C         24.20516        29.55800         0.93346
C         25.39861        31.70870         0.46701
C         24.18083        31.00340         0.72599
C         25.40641        33.13049         0.47881
C         24.18053        33.85690         0.64690
C         25.47018        36.04568         0.78575
C         24.17618        35.29518         0.60296
C         25.42851        37.46692         0.25739
C         24.17581        38.15301         0.14650
C         25.39790        40.29508        -0.09871
C         24.16474        39.58288        -0.03094
C         25.40977        41.71988        -0.15496
C         24.16968        42.44523        -0.15769
C         25.42583        44.57514        -0.11307
C         24.17204        43.86596        -0.14947
C         25.43994        45.96548        -0.03966
C         24.20627        46.77857        -0.31148
C         25.43248        48.77827         0.52279
C         24.25569        48.12752         0.35562
C         28.00187        23.17295         1.36423
C         27.88919        24.50862         1.02136
C         26.67127        25.29203         1.08125
C         27.79825        27.35726         0.20267
C         26.63745        26.67263         0.70679
C         27.81511        28.75399        -0.00589
C         26.50227        29.50121        -0.08609
C         27.81437        31.65917         0.02482
C         26.60827        30.98493         0.19564
C         27.85040        33.10384         0.10030
C         26.64188        33.83585         0.28070
C         27.89043        35.93888         0.19974
C         26.68251        35.25779         0.33141
C         27.91057        37.43614         0.46058
C         26.62610        38.14945         0.08687
C         27.84959        40.28049        -0.31211
C         26.63621        39.57188        -0.11598
C         27.88718        41.68768        -0.31084
C         26.65864        42.42087        -0.18348
C         27.91439        44.54700        -0.23320
C         26.67709        43.83820        -0.13311
C         27.92401        45.95861        -0.16833
C         26.70887        46.64481         0.38024
C         27.89946        48.82373         0.04514
C         26.69971        48.14024         0.24401
C         27.94629        50.27709         0.14197
C         30.41311        23.04268         0.85709
C         29.21540        22.43606         1.17351
C         30.42419        24.54859         0.89482
C         29.09819        25.13590         0.43525
C         30.30229        27.27602        -0.31145
C         29.02377        26.55746        -0.01580
C         30.27141        28.75711        -0.51750
C         29.00261        29.48254        -0.29716
C         30.27989        31.58977        -0.29810
C         29.04123        30.90536        -0.24365
C         30.32546        33.01192         0.06079
C         29.08254        33.81128         0.04330
C         30.38142        35.96150        -0.02145
C         29.11721        35.22264         0.07522
C         30.39273        37.35809        -0.17419
C         29.09781        38.06454        -0.25518
C         30.36540        40.24158        -0.97670
C         29.07391        39.50915        -0.62386
C         30.37356        41.70453        -0.59668
C         29.14776        42.39054        -0.42430
C         30.36927        44.51490        -0.54754
C         29.15617        43.81733        -0.38592
C         30.31101        45.96433        -0.82358
C         29.09126        46.71206        -0.43540
C         30.42666        48.84427        -0.31791
C         29.10203        48.10656        -0.30983
C         30.28838        50.33678        -0.60476
C         29.05668        50.99543        -0.12856
C         32.88915        20.23801         0.51521
C         31.71105        20.92856         0.71115
C         32.87270        23.04686         0.35616
C         31.66781        22.34201         0.64027
C         32.84972        24.49695         0.19580
C         31.64873        25.17367         0.28407
C         32.85636        27.36797        -0.14863
C         31.58798        26.63441         0.11824
C         32.78281        28.72242        -0.77742
C         31.54260        29.50580        -0.55858
C         32.76006        31.64744        -0.81331
C         31.52090        30.88240        -0.52594
C         32.81602        33.07103        -0.54779
C         31.66641        33.78392        -0.03328
C         32.81401        35.97005        -0.25900
C         31.62319        35.26261        -0.10989
C         32.84194        37.39929        -0.26544
C         31.60263        38.10580        -0.31524
C         32.83712        40.22478        -0.59117
C         31.62087        39.51764        -0.52872
C         32.85764        41.67440        -0.71522
C         31.60288        42.39915        -0.65787
C         32.84309        44.56046        -0.80536
C         31.61006        43.83494        -0.67009
C         32.86066        45.98160        -0.90545
C         31.58462        46.70383        -1.10667
C         32.86475        48.90598        -0.78461
C         31.56142        48.23739        -1.19797
C         32.86585        50.29061        -0.59856
C         31.60934        51.08334        -0.70931
C         32.82935        53.10460        -0.03164
C         31.66366        52.50872        -0.36876
C         35.35342        18.76674         0.02899
C         35.33340        20.18288         0.04192
C         34.10308        20.91508         0.24652
C         35.33829        23.04406        -0.05944
C         34.09773        22.33788         0.17533
C         35.33498        24.47524        -0.15353
C         34.09745        25.20481        -0.08750
C         35.33450        27.31757        -0.42913
C         34.10942        26.59514        -0.26579
C         35.34965        28.73312        -0.58633
C         34.10231        29.42762        -0.96414
C         35.35864        31.63494        -0.75316
C         34.09541        30.91604        -1.04472
C         35.34615        33.03951        -0.76388
C         34.05857        33.77229        -0.87354
C         35.33924        35.89372        -0.25207
C         34.05747        35.25598        -0.61987
C         35.33944        37.40218        -0.14553
C         34.06600        38.11979        -0.33223
C         35.33904        40.22138        -0.58126
C         34.07893        39.51509        -0.48812
C         35.33582        41.65011        -0.72522
C         34.07758        42.36692        -0.76768
C         35.29640        44.51476        -0.92089
C         34.09989        43.82880        -0.82220
C         35.37450        46.02031        -1.00961
C         34.05494        46.72324        -0.83073
C         35.30743        48.83200        -0.40208
C         34.06959        48.14584        -0.68636
C         35.31153        50.24563        -0.22355
C         34.08131        50.98247        -0.27462
C         35.30163        53.05951         0.27560
C         34.07770        52.37659        -0.00199
C         35.33204        54.45585         0.55308
C         37.76492        18.73071        -0.31811
C         36.52852        18.06272        -0.13796
C         37.75252        20.14572        -0.35446
C         36.55489        20.88318        -0.16387
C         37.79519        23.05114        -0.33818
C         36.56032        22.33423        -0.19169
C         37.80770        24.47536        -0.34420
C         36.56080        25.18276        -0.28776
C         37.79133        27.33942        -0.32531
C         36.56650        26.60986        -0.35937
C         37.76640        28.74671        -0.27597
C         36.55472        29.45631        -0.46139
C         37.79117        31.62965        -0.44027
C         36.56326        30.91549        -0.53575
C         37.79949        33.05090        -0.56050
C         36.56698        33.76136        -0.65274
C         37.78657        35.90880        -0.55323
C         36.58703        35.18574        -0.54006
C         37.77226        37.35008        -0.58871
C         36.60133        38.07843        -0.45306
C         37.80737        40.21000        -0.67806
C         36.56089        39.51193        -0.60867
C         37.79732        41.63684        -0.68755
C         36.56638        42.33645        -0.79332
C         37.78418        44.52369        -0.60082
C         36.59497        43.79515        -1.17309
C         37.78724        45.91169        -0.33163
C         36.45802        46.59848        -0.07967
C         37.72656        48.77947         0.01609
C         36.52847        48.10978        -0.21153
C         37.76273        50.20461         0.10837
C         36.53659        50.93096         0.04075
C         37.76781        53.03161         0.48583
C         36.53700        52.34259         0.26657
C         37.76527        54.43708         0.71679
C         36.51716        55.11670         0.76619
C         40.25131        15.87297        -0.17830
C         39.05142        16.56059        -0.27265
C         40.25737        18.66623        -0.31241
C         39.01857        17.97464        -0.34581
C         40.29186        20.11015        -0.60691
C         38.99945        20.87802        -0.65392
C         40.24880        23.03273        -0.57975
C         39.03718        22.35181        -0.49761
C         40.27750        24.46968        -0.54874
C         39.04039        25.19145        -0.44724
C         40.25529        27.35372        -0.48806
C         39.04947        26.62639        -0.39305
C         40.28223        28.76053        -0.31728
C         39.02294        29.47548         0.10914
C         40.23750        31.63851        -0.19101
C         39.03540        30.94126        -0.24429
C         40.25823        33.07763        -0.28230
C         39.02787        33.78109        -0.48850
C         40.27035        35.91583        -0.50908
C         39.03176        35.19557        -0.56240
C         40.29411        37.32253        -0.64061
C         39.03036        38.04254        -1.03707
C         40.27016        40.19882        -0.68532
C         39.03456        39.51048        -0.70972
C         40.27471        41.64009        -0.60246
C         39.04955        42.31932        -0.58771
C         40.31516        44.51680        -0.28250
C         39.00546        43.76568        -0.34600
C         40.25636        45.97122        -0.68718
C         38.98050        46.61576        -0.20647
C         40.26242        48.77044         0.12429
C         38.98045        48.00279         0.36920
C         40.25300        50.17110         0.25391
C         39.00162        50.89505         0.29696
C         40.24230        53.01825         0.56782
C         39.00797        52.30773         0.45289
C         40.23613        54.43469         0.76141
C         39.00685        55.14576         0.87120
C         40.22712        57.23675         1.18538
C         39.03817        56.55234         1.09970
C         42.74242        15.88826        -0.01725
C         41.47904        16.57004        -0.07029
C         42.72282        18.73759         0.25366
C         41.46502        17.98533        -0.10971
C         42.72618        20.17871        -0.19029
C         41.56109        20.84768        -0.45325
C         42.74919        23.05897        -0.43687
C         41.54006        22.29350        -0.90414
C         42.74109        24.44738        -0.52970
C         41.51378        25.16454        -0.64051
C         42.75417        27.39045        -0.46001
C         41.51768        26.65221        -0.92100
C         42.73383        28.74918        -0.28560
C         41.49069        29.47954        -0.29946
C         42.69580        31.62501         0.00023
C         41.51249        30.92182        -0.13977
C         42.65512        33.06122         0.45078
C         41.45675        33.79388        -0.10196
C         42.71813        35.92166        -0.16080
C         41.48315        35.20064        -0.25514
C         42.75111        37.31580        -0.39342
C         41.51750        38.03673        -0.61320
C         42.73973        40.20465        -0.94150
C         41.49202        39.46521        -0.72350
C         42.76734        41.66818        -0.75469
C         41.54124        42.36741        -0.59796
C         42.77223        44.51494        -0.66296
C         41.56520        43.78000        -0.53005
C         42.75409        45.97868        -0.49286
C         41.53256        46.67885        -0.32383
C         42.73540        48.79250         0.03047
C         41.49985        48.07142        -0.04938
C         42.73191        50.20313         0.22231
C         41.49077        50.90271         0.30549
C         42.72462        53.03403         0.52705
C         41.48459        52.31625         0.47052
C         42.71689        54.45761         0.69627
C         41.47392        55.14761         0.83749
C         42.69910        57.26116         1.09222
C         41.46739        56.55542         1.04020
C         43.93774        16.57984        -0.08640
C         45.21406        18.72457        -0.20148
C         43.99788        17.99780        -0.08411
C         45.21304        20.18082        -0.12716
C         43.99714        20.86750        -0.13713
C         45.29265        23.07871         0.04258
C         43.94555        22.32834        -0.02252
C         45.29573        24.50781        -0.27936
C         44.03784        25.17322        -0.58989
C         45.28001        27.35029        -0.09815
C         44.05519        26.70040        -0.55622
C         45.09403        28.67618         0.60823
C         44.02836        29.47254        -0.12477
C         45.22271        31.67244         0.44151
C         44.00726        30.96319        -0.02332
C         45.21198        33.09652         0.52538
C         43.96047        33.81274         0.31797
C         45.12971        35.98240         0.46408
C         43.92636        35.18847         0.16286
C         45.18403        37.36909        -0.02956
C         44.02629        38.01070        -0.42484
C         45.26141        40.24061        -0.60944
C         44.05796        39.43296        -0.85698
C         45.25497        41.62562        -0.69745
C         43.99844        42.37060        -0.77560
C         45.23720        44.54981        -1.02765
C         43.98588        43.79857        -0.78861
C         45.24096        46.05706        -0.79809
C         43.96970        46.70486        -0.41492
C         45.20944        48.81062        -0.00447
C         43.96982        48.09496        -0.13050
C         45.20588        50.20996         0.20214
C         43.97175        50.91850         0.28324
C         45.19572        53.07802         0.41973
C         43.96022        52.34156         0.41904
C         45.18544        54.49190         0.55033
C         43.93607        55.18968         0.72486
C         43.89374        56.59786         0.93009
C         47.63744        18.78239        -0.56327
C         46.44967        18.07133        -0.42385
C         47.68128        20.17834        -0.44567
C         46.47946        20.90046        -0.20947
C         47.74292        23.06228        -0.28952
C         46.51536        22.31867        -0.17170
C         47.73981        24.49664        -0.17204
C         46.49202        25.21823        -0.25103
C         47.71748        27.35888         0.20161
C         46.47740        26.66015        -0.09576
C         47.69599        28.74061         0.50792
C         46.42172        29.45023         0.95306
C         47.63455        31.64577         0.80683
C         46.42173        30.95102         0.61240
C         47.68099        33.07766         0.82931
C         46.43562        33.78230         0.71472
C         47.69168        35.98691         0.71972
C         46.41707        35.25321         0.79570
C         47.72739        37.34027         0.40857
C         46.50991        38.01258        -0.14895
C         47.71452        40.27930        -0.01351
C         46.52279        39.49207        -0.43071
C         47.71612        41.69783        -0.44460
C         46.53196        42.34635        -0.68565
C         47.81078        44.58503        -0.73995
C         46.54618        43.80402        -1.00349
C         47.76713        46.03830        -0.44138
C         46.50534        46.76269        -0.46906
C         47.68782        48.78593         0.45692
C         46.45591        48.08741        -0.07336
C         47.68269        50.27330         0.21694
C         46.46105        50.95040         0.23873
C         47.66351        53.10887         0.26559
C         46.44071        52.38458         0.29374
C         47.61715        54.52792         0.36082
C         46.42354        55.19255         0.50691
C         50.21735        20.22196        -0.26573
C         48.97115        20.90960        -0.75956
C         50.19247        23.07501        -0.25747
C         48.96531        22.37232        -0.38281
C         50.19166        24.49867        -0.08694
C         48.95320        25.20963        -0.05976
C         50.16796        27.33853         0.33880
C         48.94555        26.64439         0.13748
C         50.13169        28.72995         0.62627
C         48.90986        29.42154         0.74764
C         50.14296        31.63392         1.34032
C         48.85591        30.86656         1.13435
C         50.16644        33.11280         1.15181
C         48.91643        33.79359         1.03925
C         50.16891        36.00851         1.04515
C         48.87588        35.28981         1.33023
C         50.18682        37.37428         0.75191
C         48.95837        38.05969         0.46962
C         50.26520        40.21261         0.24235
C         48.96702        39.52624         0.33686
C         50.28477        41.63417        -0.16468
C         49.02805        42.37808        -0.53132
C         50.21619        44.50916        -0.13426
C         49.05151        43.84949        -0.40135
C         50.20534        45.96519         0.22608
C         48.94208        46.69240        -0.13623
C         50.15387        48.82734        -0.04584
C         48.97446        48.12566         0.05036
C         50.16790        50.27515         0.06518
C         48.92260        50.98304         0.15989
C         50.15920        53.08987         0.06937
C         48.91549        52.40576         0.15723
C         51.37351        20.90873        -0.13016
C         52.65599        23.06136        -0.22538
C         51.42888        22.35391        -0.23912
C         52.65773        24.48801        -0.08664
C         51.42633        25.20076         0.03820
C         52.65859        27.29409         0.38145
C         51.42745        26.61724         0.26745
C         52.67582        28.72832         0.55895
C         51.40913        29.40840         0.92559
C         52.73541        31.62038         1.14618
C         51.43900        30.86003         1.29488
C         52.71043        33.12362         1.15774
C         51.39255        33.80077         1.21113
C         52.74076        36.01219         1.05127
C         51.41180        35.27197         1.26668
C         52.68070        37.44624         0.70221
C         51.45172        38.10420         0.67536
C         52.71336        40.29298         0.75641
C         51.43505        39.53997         0.46428
C         52.71981        41.72777         0.30518
C         51.51282        42.40743         0.09954
C         52.69425        44.54854         0.03672
C         51.48484        43.81640        -0.00265
C         52.67423        45.99727        -0.10446
C         51.46944        46.67949        -0.15685
C         52.69007        48.86542        -0.15273
C         51.41694        48.13774        -0.52081
C         52.66508        50.26063         0.00296
C         51.38645        50.98099         0.01292
C         51.35093        52.40101         0.00760
C         55.09501        23.08429        -0.41605
C         53.91400        22.39176        -0.36930
C         55.13333        24.50745        -0.26869
C         53.90002        25.19164        -0.06395
C         55.12978        27.29496         0.24034
C         53.90002        26.60169         0.17672
C         55.12448        28.72061         0.60971
C         53.84567        29.43899         0.54217
C         55.12782        31.64278         0.35585
C         53.80413        30.92781         0.29616
C         55.07126        33.11168         0.03651
C         53.89478        33.86004         0.63094
C         55.14383        35.96730         0.31066
C         53.93608        35.23596         0.63357
C         55.15246        37.39088         0.28981
C         53.93158        38.13599         0.44266
C         55.17415        40.25293         0.20356
C         53.96187        39.54060         0.38477
C         55.18801        41.69687         0.15317
C         53.94154        42.42536         0.20493
C         55.16212        44.56397        -0.03190
C         53.92949        43.84640         0.06266
C         55.15037        45.99538        -0.08989
C         53.92730        46.71147        -0.14679
C         55.15170        48.85751         0.04835
C         53.92120        48.14945        -0.10459
C         55.09960        50.26320         0.19333
C         53.89462        50.94204         0.19333
C         57.59960        24.62153        -0.68508
C         56.35999        25.24556        -0.32949
C         57.58406        27.40486        -0.12158
C         56.35391        26.64683        -0.05287
C         57.63273        28.79331         0.18512
C         56.40605        29.49809         0.63052
C         57.58531        31.67981         0.38871
C         56.34476        30.98242         0.46024
C         57.59782        33.10041         0.25604
C         56.37557        33.82960         0.21809
C         57.61855        35.95392         0.11071
C         56.37635        35.24181         0.19615
C         57.62232        37.37924         0.04834
C         56.38354        38.10315         0.12647
C         57.63364        40.24368        -0.06453
C         56.39760        39.52809         0.08287
C         57.63874        41.67235        -0.13254
C         56.39156        42.39550        -0.03279
C         57.60489        44.55535        -0.18285
C         56.39328        43.84317        -0.08962
C         57.61477        45.97324        -0.06069
C         56.38998        46.70789        -0.03690
C         57.65623        48.78455         0.16564
C         56.40755        48.13042         0.05631
C         58.75780        25.34397        -0.79435
C         59.97824        27.49441        -0.63719
C         58.78233        26.74988        -0.52100
C         60.00682        28.84348        -0.31960
C         58.83811        29.50485         0.11156
C         60.09137        31.70283         0.34261
C         58.85794        30.91609         0.68148
C         60.06776        33.04298         0.15873
C         58.84146        33.80470         0.16893
C         60.06386        35.96346        -0.04917
C         58.84851        35.22807         0.06871
C         60.06187        37.33632        -0.12943
C         58.85334        38.08073        -0.08399
C         60.05716        40.24697        -0.36113
C         58.86108        39.52474        -0.16515
C         60.04871        41.63314        -0.45482
C         58.85949        42.36265        -0.32516
C         60.09070        44.55947         0.04599
C         58.89078        43.85787        -0.54746
C         60.07234        45.89452         0.25293
C         58.85416        46.66727         0.09785
C         58.84885        48.06590         0.20993
O         30.76077        50.81721        -1.88496
O         53.12418        32.30153         2.34560
O         33.40142        28.78970        -2.09047
O         39.65105        44.16917         0.94870
O         44.52216        22.78137         1.25857
O         32.27327        27.37364         1.20828
O         45.55391        35.80536         1.87498
O         30.78309        46.16452        -2.22325
O         27.95987        37.60256         1.87019
O         55.85390        29.00485         1.88968
O         44.16068        25.97344        -1.83588
O         34.01892        34.75434        -1.99525
O         51.50820        29.85878         2.34403
O         46.58301        29.43471         2.35535
O         44.36402        30.24030        -1.30505
O         45.15583        45.47539        -2.15188
O         49.33328        31.21347         2.47571
O         30.27600        27.79036        -1.67549
O         35.33758        36.54421         1.05683
O         28.77216        38.45768        -1.63760
O         46.77502        38.53236        -1.51248
O         47.40152        44.20021        -2.11282
O         28.89601        25.42295        -0.97587
O         49.87994        41.80780        -1.59018
O         33.34499        31.40668        -2.17406
O         43.44172        39.72338        -2.15008
O         31.15914        33.24919         1.25027
O         52.25606        35.74697         2.39164
O         39.63797        20.41848        -1.91323
O         48.07334        40.14827         1.40327
O         54.80850        33.19161        -1.46976
H         55.66105        32.98748        -1.91343
O         40.20261        45.94657        -2.15636
H         40.31717        46.86423        -2.48192
O         47.59189        48.62847         1.92490
H         48.46193        48.87515         2.30484
O         25.66486        36.20591         2.23210
H         26.52796        36.72894         2.32620
O         30.48786        24.93726         2.31293
H         31.36614        24.67419         2.66071
O         41.54796        26.75071        -2.39399
H         42.44006        26.42191        -2.66788
O         53.28642        31.03625        -1.07827
H         53.70644        31.83731        -1.49407
O         39.03498        29.43057         1.58658
H         39.85936        29.87023         1.88853
O         52.74276        40.38222         2.23060
H         52.71966        39.46564         2.58178
O         31.36608        48.56204        -2.57970
H         30.85384        47.82300        -2.98497
O         42.70559        18.80513         1.73089
H         42.78622        17.88591         2.06417
O         48.68326        35.38785         2.79252
H         47.74064        35.19453         2.98848
O         58.90168        30.72167         2.14046
H         58.66238        31.57288         2.56410
O         38.89791        47.80851         1.83567
H         39.00822        48.69124         2.25027
O         36.82060        43.81631        -2.63462
H         36.73224        44.76397        -2.90575
O         51.33912        48.18159        -1.99567
H         52.14581        47.74716        -2.34606
O         30.45558        40.25358        -2.43608
H         30.00971        39.42871        -2.74413
O         26.77985        46.42751         1.86105
H         26.79741        45.45584         2.00473
O         59.02861        44.01723        -2.01067
H         59.02538        44.98042        -2.19739
O         36.07651        46.31466         1.28495
H         36.81898        46.60291         1.86130
O         44.46029        28.32654         1.86286
H         45.14644        28.57999         2.55411
O         50.20429        45.99194         1.71214
H         50.99383        45.49084         2.01144
O         38.99677        37.97727        -2.51777
H         39.80421        38.42700        -2.84851
O         30.91715        48.73024         1.05668
H         30.17559        48.93930         1.66364
O         42.42506        32.98394         1.91069
H         42.58258        33.87722         2.28526
O         41.62589        22.25201        -2.36912
H         40.88525        21.66518        -2.66469
O         35.83082        46.35747        -2.37134
H         35.05228        46.31063        -2.96713
O         26.12395        29.42808        -1.51250
H         26.22019        28.49349        -1.79600
O         24.20938        47.06151        -1.76608
H         24.15241        46.19805        -2.22854
O         49.05349        20.87889        -2.23710
H         49.86979        21.36182        -2.48842
H         22.23194        27.03389         2.17082
H         22.16327        29.45412         1.72191
H         22.03526        31.22105         1.02487
H         22.02824        33.64885         0.93395
H         22.03026        35.49211         0.38274
H         22.00925        37.90371         0.17457
H         21.98626        39.80124        -0.08901
H         21.98998        42.22179        -0.20840
H         22.00182        44.11255         0.10693
H         22.00569        46.54702         0.05498
H         25.49999        23.61742         1.85273
H         23.43241        24.90622         2.18586
H         25.41802        49.81929         0.88025
H         23.30507        48.63296         0.58224
H         27.13070        22.61064         1.72806
H         27.03456        50.80787         0.44762
H         29.15486        21.34406         1.28684
H         29.02028        52.09305        -0.08162
H         32.86762        19.14300         0.58180
H         30.79472        20.36256         0.92366
H         32.82222        54.17819         0.19396
H         30.74371        53.10369        -0.44690
H         34.42354        18.19888         0.15899
H         34.40142        55.03511         0.59415
H         36.48961        16.96597        -0.12160
H         36.48396        56.19527         0.96543
H         40.25400        14.77362        -0.16364
H         38.11905        15.98228        -0.31611
H         40.23053        58.32284         1.35604
H         38.10070        57.11310         1.20621
H         42.74894        14.78894        -0.01189
H         42.68656        58.34833         1.25540
H         44.86706        15.99722        -0.15823
H         44.82578        57.17614         0.97031
H         48.55659        18.22454        -0.78843
H         46.48315        16.97796        -0.51996
H         48.54545        55.11305         0.33342
H         46.44026        56.28707         0.58552
H         50.21699        19.13096        -0.13122
H         50.18579        54.18708         0.04806
H         52.28950        20.36633         0.14512
H         52.28453        52.97393        -0.06642
H         56.02963        22.52369        -0.55095
H         53.93407        21.29931        -0.48236
H         56.02547        50.83823         0.32749
H         53.90680        52.02990         0.34068
H         57.62372        23.54563        -0.90394
H         57.70110        49.87897         0.24292
H         59.69297        24.84753        -1.09171
H         60.89912        26.98513        -0.95590
H         60.96056        29.38388        -0.38521
H         61.06372        31.19200         0.38382
H         61.02078        33.56629         0.00102
H         61.02748        35.43931        -0.07864
H         61.02514        37.85452        -0.21949
H         61.01519        39.72249        -0.46843
H         60.99433        42.15624        -0.65148
H         61.02608        43.99939         0.18850
H         60.97921        46.42038         0.58840
H         59.80142        48.60010         0.33789
