         316
 CSIRO Nanostructure Databank - Neutral Graphene Oxide Data Set
C         30.37259        31.63045         0.77785
C         30.33410        32.86713         0.81894
C         30.36208        36.06657         1.61597
C         30.35932        37.20700         1.13296
C         30.29422        40.28191        -0.00506
C         30.21610        41.50739        -0.10470
C         32.95191        28.94302         0.62067
C         31.82936        29.41803         0.78618
C         32.78633        31.59461         0.23760
C         31.61770        30.86200         1.13038
C         32.67308        33.18297         0.24352
C         31.48906        33.74270         1.09039
C         32.79540        36.00928         1.74286
C         31.49769        35.13230         1.61545
C         32.76618        37.43431         1.10798
C         31.44465        38.16350         0.89992
C         32.70093        40.17850        -0.00531
C         31.39623        39.27954        -0.12113
C         32.58350        41.66495         0.37391
C         31.38860        42.38943        -0.45692
C         32.66036        44.33125        -0.08367
C         31.51319        43.83514        -0.00951
C         35.56435        27.58323        -0.60191
C         35.20637        29.03571        -0.56777
C         34.35141        29.46807         0.63322
C         35.32152        31.73473         0.35500
C         34.18409        31.02461         0.54315
C         35.29443        33.22900         0.07583
C         33.99717        33.93778         0.51749
C         35.32735        35.97238         1.67681
C         34.03525        35.28776         1.20339
C         35.20416        37.47142         1.32818
C         34.07982        37.94812         0.40187
C         35.14218        40.32524         0.73788
C         34.00417        39.48662         0.28996
C         35.13343        41.67808         0.48669
C         33.91797        42.39782         0.23816
C         35.24136        44.39377        -0.32999
C         33.98112        43.78455         0.05633
C         35.33839        45.71297        -0.90542
C         37.77290        27.65724        -1.59430
C         36.56477        26.96395        -0.97471
C         37.88109        28.97938        -0.67902
C         36.57877        29.72648        -0.48673
C         37.87789        31.85573        -0.12217
C         36.67456        31.00852         0.32309
C         37.82074        33.37537        -0.06196
C         36.56676        33.85876         0.72045
C         37.81224        35.92657         1.27107
C         36.58279        35.35188         1.03556
C         38.11769        36.91050         2.36136
C         35.97388        38.41033         1.98175
C         37.57417        40.21870         1.20552
C         36.30541        39.69275         1.33759
C         37.63499        41.46564         0.29232
C         36.44876        42.41468         0.60593
C         37.64377        43.94983        -1.12566
C         36.42934        43.64358        -0.27908
C         37.68239        45.40282        -1.66576
C         36.48056        45.98122        -1.43669
C         40.34547        25.25287        -2.87168
C         39.24064        25.72438        -2.54122
C         40.33951        27.69511        -1.67701
C         39.06082        26.83256        -1.52050
C         40.31792        29.17326        -1.39470
C         38.96622        29.92199        -1.25750
C         40.31317        32.07504        -0.74055
C         39.02923        31.26718        -0.53498
C         40.29927        33.38393         0.03891
C         39.11493        33.98495         0.42195
C         40.30550        35.97305         1.33149
C         39.08450        35.29626         0.97555
C         40.33991        37.39257         1.72735
C         39.06294        38.12096         2.20793
C         40.13690        40.32605         1.52329
C         38.86827        39.39202         1.25177
C         40.12843        41.76929         0.91338
C         38.90862        42.29936         0.28644
C         40.14431        44.21413        -0.74799
C         38.96294        43.48725        -0.49368
C         40.09844        45.59880        -1.37618
C         38.91919        45.75341        -2.41950
C         40.10395        47.79839        -3.03164
C         39.04412        47.15728        -2.95904
C         42.99501        25.23543        -2.92726
C         41.65779        25.80585        -3.18610
C         42.93238        27.80035        -1.76129
C         41.65223        26.94580        -1.62994
C         42.88005        29.09532        -0.94207
C         41.55381        29.75518        -0.74444
C         42.83052        31.87009        -0.07117
C         41.53511        31.22257        -0.36194
C         42.87745        33.29779         0.21033
C         41.54368        34.09985         0.28366
C         42.77935        35.98033         1.55381
C         41.51509        35.34101         1.04469
C         42.78126        37.47408         1.35912
C         41.49275        38.12398         1.55049
C         42.67049        40.27880         0.83843
C         41.40389        39.56315         1.17107
C         42.69837        41.74116         0.38435
C         41.41846        42.52941         0.68032
C         42.70073        44.34928        -0.61379
C         41.40623        43.95089         0.07307
C         42.73003        45.74076        -1.19886
C         41.44697        46.02258        -2.01380
C         42.72108        47.98242        -2.83146
C         41.35660        47.88961        -2.28568
C         44.02543        25.80805        -2.51060
C         45.01862        26.90825        -0.47265
C         44.14147        26.86010        -1.53249
C         45.38830        29.34216        -1.11164
C         44.02848        29.78229        -0.63814
C         45.27810        31.79449         0.20895
C         44.04050        31.13788        -0.06977
C         45.31387        33.14071         0.68766
C         44.01300        33.79058         1.08160
C         45.23330        35.96398         1.26086
C         44.06268        35.30181         1.14566
C         45.27717        37.45918         1.49589
C         43.95659        38.16299         1.26108
C         45.20985        40.38456         0.99071
C         43.94220        39.67330         1.41907
C         45.22967        41.74837         0.81917
C         43.94640        42.57134         0.76510
C         45.29325        44.34271        -0.66828
C         43.98311        43.68305        -0.30885
C         45.28475        45.81889        -1.18144
C         44.05522        46.04081        -2.06419
C         43.80773        47.47467        -2.50989
C         47.51210        27.40479        -0.40198
C         46.45324        26.77589        -0.54636
C         47.76390        28.81177         0.00134
C         46.54649        29.66328        -0.18264
C         47.72290        31.58704         0.85355
C         46.62689        31.17202        -0.10510
C         47.74346        33.04446         1.16017
C         46.49559        33.80739         0.95671
C         47.79477        35.91196         1.37659
C         46.48487        35.17497         1.58556
C         47.76191        37.42442         1.33942
C         46.46340        38.06473         0.70015
C         47.53213        40.30783         0.41988
C         46.42579        39.59856         0.76266
C         47.80848        41.69226         0.95139
C         46.52337        42.50292         0.68303
C         47.89399        43.98323        -0.91304
C         46.57602        43.79490        -0.06983
C         47.68117        45.29931        -1.58303
C         46.62914        45.86937        -1.87547
C         50.05970        29.71937        -0.83853
C         49.12655        29.44051         0.29918
C         50.14363        31.51167         1.36372
C         48.99548        30.84258         0.87470
C         50.21890        32.91873         1.61139
C         49.07411        33.73189         0.97401
C         50.18838        36.05351         0.91484
C         48.97322        35.23711         1.22343
C         50.32695        37.22381         1.88912
C         49.10924        38.07455         1.47893
C         50.53587        40.06546         0.94809
C         49.46137        39.28712         0.72886
C         50.49165        41.49026         0.44954
C         49.20202        42.31682         0.51833
C         50.45537        43.92432        -0.74064
C         49.13403        43.81013        -0.04645
C         50.88940        30.37231        -1.46571
C         52.27918        32.22064        -0.82102
C         51.98740        31.22973        -1.77187
C         52.09244        33.02460         0.11748
C         51.57947        33.50102         1.34062
C         52.81872        35.68432         1.87111
C         52.09096        34.48060         2.20212
C         52.70267        36.91345         1.89932
C         51.69579        37.98441         1.88734
C         52.89079        40.24553         0.99801
C         51.77775        39.45734         1.56722
C         52.86274        41.29495         0.34490
C         51.73426        41.89076        -0.46189
C         51.54806        43.35562        -0.68096
O         51.75618        39.00367         2.92489
O         38.06515        36.40535         3.48400
O         47.45279        32.06509         2.22722
O         48.55740        39.66206        -0.26948
O         41.24445        30.16702         0.62409
O         31.63391        34.00227         2.50241
O         46.79325        29.04175         1.11270
O         32.25115        38.41972         2.06929
O         42.48860        34.16720        -0.87150
O         45.63298        29.16661        -2.29664
O         33.95395        35.19406        -0.24132
O         46.60748        43.80288         1.38003
O         44.74926        43.34470        -1.55836
O         40.81185        42.60039         1.98099
O         41.94242        39.54602        -0.20366
O         33.61139        39.92053        -1.08817
O         50.85641        35.92184        -0.10223
O         50.20037        42.35258         1.58255
O         48.13900        38.14978         2.56861
O         40.42793        28.67550        -2.76543
O         47.90814        42.92951        -1.87272
H         47.19302        43.09080        -2.52612
O         49.28131        33.67653        -0.47390
H         50.06309        34.24062        -0.68702
O         45.31623        46.67300        -0.06360
H         45.02110        47.56505        -0.34451
O         32.20502        41.69987         1.75469
H         31.98377        42.62629         1.99123
O         36.43919        38.25008         3.23175
H         36.14746        37.35503         3.56302
O         47.07232        31.64965        -1.40132
H         46.49971        31.25549        -2.09628
O         36.99998        30.65630         1.69857
H         37.74083        30.00204         1.65914
O         36.64327        42.84629         1.98100
H         35.95745        43.51381         2.19246
O         42.75752        35.80177         3.01841
H         42.87039        34.82961         3.17645
O         46.38942        34.95739         3.03830
H         46.35992        35.85557         3.44614
O         38.35646        28.56596         0.62818
H         37.70531        27.92271         0.98734
O         35.00787        29.07046         1.81688
H         34.53414        29.44237         2.58833
O         35.28445        33.35045        -1.36495
H         35.05853        34.28754        -1.57048
O         35.48245        35.78198         3.10353
H         34.57984        35.82003         3.51301
O         43.74023        43.19515         2.04074
H         44.58457        43.62248         2.30684
O         43.06439        28.27288        -3.12333
H         42.22401        28.74087        -3.35125
O         43.72947        33.31816         2.44112
H         44.58095        33.34006         2.93547
O         37.47225        43.15838        -2.37100
H         36.55609        43.31117        -2.68917
O         31.37727        38.66137        -1.39607
H         31.36611        39.36006        -2.08351
O         52.71074        31.03740        -2.87687
H         53.44100        31.68446        -2.93671
O         45.54891        37.64930         2.92171
H         44.74239        37.34773         3.39925
O         51.27041        30.79953         1.59213
H         51.06936        29.83491         1.50928
O         31.89568        31.05573         2.48543
H         31.14999        30.73233         3.03085
O         34.56268        29.38316        -1.78776
H         33.70200        29.84385        -1.60437
O         32.53787        31.12728        -1.09488
H         32.34810        31.91291        -1.66572
O         46.34371        37.61511        -0.65028
H         46.94222        38.14612        -1.21681
O         32.92471        36.19984         3.16230
H         32.40557        37.00770         3.39161
O         39.74879        46.50910        -0.31513
H         40.22554        46.21789         0.49981
O         41.61896        45.43728        -3.27161
H         40.74526        45.25775        -3.70029
O         32.28115        33.55016        -1.09808
H         32.66625        34.43655        -1.29688
O         37.45997        40.87418        -1.03072
H         37.59116        41.58185        -1.71735
O         41.78026        26.14325        -0.50441
H         40.88845        25.82350        -0.22322
O         41.20583        48.60161        -1.12117
H         41.96213        48.38681        -0.52787
O         38.54172        30.32256        -2.57211
H         38.92099        29.68236        -3.22177
O         41.28613        44.89760         1.22898
H         40.99739        44.33359         1.99605
O         37.48393        27.97317        -2.92398
H         36.61868        28.43484        -2.96137
O         49.06937        44.68174         1.05225
H         49.82006        44.47412         1.64978
O         37.78370        33.82391        -1.44539
H         36.99597        33.40424        -1.87213
O         50.13819        36.72481         3.21645
H         49.37843        37.22425         3.60766
O         44.61730        27.46835         0.70948
H         45.40299        27.79212         1.21651
O         42.77487        46.67658        -0.08083
H         42.34768        46.23346         0.69656
O         36.58423        33.26662         2.04185
H         37.17362        33.78999         2.62624
O         40.27906        40.53275         2.92984
H         39.50168        41.02205         3.26716
O         39.24277        38.55740         3.55018
H         38.92868        37.81445         4.12556
O         41.61519        26.51267        -4.36255
H         42.50032        26.90402        -4.53225
O         51.63753        34.45297         3.45846
H         51.82355        35.28947         3.93328
O         47.87240        41.52863         2.38208
H         47.89683        42.42728         2.77732
O         34.18043        37.43632        -0.92077
H         33.84959        38.13468        -1.53418
O         42.73866        41.70035        -1.06314
H         42.24612        40.89664        -1.35514
O         43.84779        39.92893         2.85243
H         44.66488        39.57150         3.26752
O         39.09646        44.82089        -3.49816
H         38.37361        44.95562        -4.14513
O         39.12269        26.22843        -0.22107
H         38.29333        25.71247        -0.10370
O         31.62094        42.28515        -1.82815
H         30.95854        42.81725        -2.31419
O         44.20613        45.21350        -3.18188
H         43.36890        45.23236        -3.70037
O         40.43966        32.39667        -2.14038
H         39.65387        32.93890        -2.37988
O         49.82183        28.55769         1.21532
H         49.19223        28.31118         1.92643
O         51.61739        41.19213        -1.67185
H         52.26682        41.53939        -2.31653
O         38.98503        38.84774        -0.07430
H         38.53292        39.45795        -0.71305
