         470
 CSIRO Nanostructure Databank - Neutral Graphene Oxide Data Set
C         37.82832        49.71271         2.78066
C         36.74903        50.38895         3.25713
C         37.90579        52.53894         3.21749
C         36.79217        51.80754         3.48784
C         40.19260        48.38970         1.50937
C         40.21508        49.70943         1.85841
C         39.14761        50.34604         2.67503
C         40.26454        52.66899         2.23560
C         39.18646        51.89754         2.89001
C         40.15506        54.03064         1.96277
C         42.37952        48.46364         0.39621
C         41.31762        47.75572         0.85863
C         42.32875        49.97417         0.42661
C         41.45226        50.47808         1.56460
C         42.54297        52.75435         1.12422
C         41.48419        51.98346         1.79652
C         42.45461        54.16324         1.08300
C         41.22764        54.77406         1.45019
C         44.70655        45.69482        -0.30207
C         43.55313        46.36647        -0.40954
C         44.81562        48.55772        -0.27263
C         43.47650        47.87010        -0.45498
C         44.82648        50.00489        -0.06484
C         43.68203        50.66125         0.38975
C         44.89919        52.81502         0.43859
C         43.71121        52.07305         0.65568
C         44.87251        54.25287         0.54090
C         43.63777        54.93212         0.74593
C         44.81499        57.06205         0.58913
C         43.64141        56.34677         0.73914
C         47.40846        44.16592        -0.21038
C         47.29590        45.64624        -0.09311
C         46.00117        46.40053        -0.17289
C         47.19133        48.60912        -0.98655
C         45.98362        47.86821        -0.44588
C         47.28757        50.04603        -0.48596
C         46.08112        50.71639        -0.13853
C         47.34163        52.82939         0.04474
C         46.11155        52.12126         0.10978
C         47.35434        54.26320         0.39531
C         46.07689        54.99910         0.43914
C         47.31064        57.17269         0.31952
C         46.07047        56.41019         0.46974
C         47.31861        58.58815         0.38467
C         49.88759        44.24941         0.05165
C         48.59876        43.53859        -0.16091
C         49.85363        45.75127        -0.09538
C         48.54447        46.36696        -0.51242
C         49.76717        48.57633        -1.06669
C         48.49194        47.79998        -0.92023
C         49.72716        50.09177        -1.01019
C         48.48284        50.77171        -0.59049
C         49.78632        52.91701        -0.46010
C         48.53965        52.17284        -0.29930
C         49.81890        54.34281        -0.32800
C         48.62843        55.04885         0.18532
C         49.71898        57.25051        -0.20755
C         48.54171        56.51880         0.05826
C         49.72204        58.67193        -0.05768
C         48.48953        59.30840         0.24424
C         52.50943        41.48217        -0.56991
C         51.32064        42.08536        -0.31910
C         52.43631        44.33999        -0.45377
C         51.23637        43.54002        -0.08577
C         52.37399        45.72770        -0.58116
C         51.12066        46.49684        -0.39518
C         52.21632        48.65671        -0.96482
C         51.06537        47.91055        -0.87609
C         52.20685        50.10348        -1.00245
C         51.00527        50.80834        -0.89024
C         52.20554        52.95612        -1.02665
C         50.98721        52.23265        -0.76948
C         52.18948        54.40874        -0.98428
C         50.97753        55.08891        -0.58950
C         52.13023        57.26368        -0.68161
C         50.96507        56.54750        -0.50203
C         52.14988        58.77013        -0.78761
C         50.95343        59.41419        -0.13666
C         52.27313        61.43620         0.29468
C         51.05891        60.74769         0.27641
C         55.21132        40.07745        -0.68731
C         55.02496        41.52208        -0.98158
C         53.73378        42.23779        -0.71944
C         54.88955        44.43241        -1.08477
C         53.67552        43.62516        -0.71142
C         54.79372        45.86936        -0.72010
C         53.57945        46.50156        -0.77986
C         54.65091        48.77367        -0.41598
C         53.54981        47.97512        -1.12652
C         54.69256        50.20886        -0.88643
C         53.45435        50.84522        -1.05433
C         54.64545        52.92903        -1.76165
C         53.40203        52.26532        -1.21923
C         54.60526        54.45763        -1.65298
C         53.36495        55.11962        -1.19587
C         54.68817        57.31495        -0.87768
C         53.40317        56.53940        -0.80588
C         54.68896        58.79306        -0.75890
C         53.48013        59.44218        -0.46318
C         54.76620        61.49224         0.04109
C         53.50210        60.80540        -0.04993
C         54.89090        62.81137         0.57680
C         57.66449        40.23406        -1.10175
C         56.41399        39.47945        -0.80001
C         57.61203        41.67806        -0.75322
C         56.30637        42.33750        -0.98571
C         57.29878        44.46310        -0.30631
C         56.20591        43.78659        -0.74248
C         57.22484        45.92218        -0.07363
C         56.04936        46.63717        -0.63510
C         57.15986        48.92361        -0.09668
C         55.99691        48.11402        -0.56528
C         57.18916        50.31395        -0.58100
C         55.94267        50.94277        -0.91943
C         57.17421        53.02748        -1.28312
C         55.94116        52.31052        -1.25230
C         57.18496        54.45016        -1.42538
C         55.91499        55.20506        -1.52859
C         57.15717        57.35327        -1.04856
C         55.91861        56.62549        -1.22777
C         57.14698        58.82581        -1.40118
C         55.91673        59.50677        -0.81758
C         57.17997        61.65434        -0.61437
C         55.94173        60.85998        -0.45098
C         57.30425        62.92705         0.10387
C         56.10581        63.45653         0.66895
C         60.29905        37.51420        -0.67593
C         59.12817        38.11598        -0.98664
C         60.28684        40.42264        -0.90287
C         59.02008        39.57975        -1.12916
C         60.03521        41.76725        -0.22495
C         58.70525        42.35888        -0.28529
C         59.76583        44.55170         0.22772
C         58.50030        43.74895         0.28423
C         59.73830        45.99005         0.05670
C         58.45036        46.71065         0.25007
C         59.70115        48.96081        -0.03497
C         58.44656        48.22190         0.19588
C         59.69293        50.29405        -0.41070
C         58.42217        50.97611        -0.67702
C         59.65676        53.02825        -1.28147
C         58.41999        52.34871        -1.06446
C         59.61468        54.40668        -1.53364
C         58.40188        55.13579        -1.42558
C         59.67509        57.36378        -1.46082
C         58.46920        56.59933        -1.20092
C         59.69897        58.77379        -1.23358
C         58.47932        59.47531        -1.10195
C         59.77574        61.59628        -0.71845
C         58.49979        60.92320        -0.99048
C         59.77044        62.90356        -0.22357
C         58.57203        63.54786         0.24127
C         59.89039        65.31023         1.37352
C         58.70273        64.73866         1.05845
C         62.85671        36.18739        -0.31312
C         62.72053        37.56763        -0.03239
C         61.48774        38.26302        -0.32684
C         62.51039        40.39532         0.30437
C         61.42650        39.66405        -0.23744
C         62.41602        41.82427         0.47346
C         61.13148        42.46856         0.23622
C         62.27715        44.69243         0.54655
C         61.00407        43.89185         0.74423
C         62.27774        46.06519         0.33637
C         61.00901        46.77602         0.06607
C         62.26322        48.98739         0.06469
C         60.96155        48.25637         0.26858
C         62.20507        50.34666        -0.49147
C         60.95653        50.98693        -0.66814
C         62.14153        52.95011        -1.54843
C         60.93385        52.32233        -1.18171
C         62.07539        54.31930        -2.12502
C         60.81190        55.11903        -1.99344
C         62.18229        57.27126        -1.75056
C         60.84660        56.63906        -1.96335
C         62.23195        58.72605        -1.33358
C         60.95973        59.50187        -1.26511
C         62.26808        61.59190        -0.96284
C         60.99889        60.88532        -1.01962
C         62.31511        62.84580        -0.36535
C         61.06807        63.59382        -0.08391
C         62.45970        65.26939         1.30546
C         61.14402        64.87071         0.74250
C         62.58657        66.35538         2.15604
C         65.16115        36.20716         0.45048
C         64.05677        35.53213        -0.09786
C         65.04432        37.58004         0.79704
C         63.83613        38.27887         0.49187
C         64.77228        40.42482         1.26843
C         63.72010        39.71107         0.70432
C         64.66693        41.89185         1.62971
C         63.50419        42.57505         0.94462
C         64.70472        44.75657         0.86772
C         63.50597        44.01411         0.82333
C         64.73032        46.12794         0.49358
C         63.49939        46.81245         0.25699
C         64.71730        48.89018        -0.29196
C         63.51028        48.20348        -0.03727
C         64.69320        50.27212        -0.71600
C         63.43619        50.96391        -0.86608
C         64.65231        52.92261        -1.74246
C         63.40674        52.29241        -1.39460
C         64.62861        54.27958        -2.32807
C         63.35068        55.06524        -2.36774
C         64.58787        57.23901        -2.28185
C         63.39183        56.53586        -2.19500
C         64.59753        58.67222        -2.21769
C         63.58985        59.46214        -1.37256
C         64.75940        61.75037        -1.44633
C         63.45460        60.97943        -1.71609
C         64.78692        62.94860        -0.61976
C         63.55884        63.46859         0.01017
C         64.93268        64.92895         1.49921
C         63.63171        64.56109         0.87142
C         65.02851        66.18321         2.27719
C         63.85100        66.83343         2.59282
C         67.60574        33.35987         1.20300
C         66.50864        34.00372         0.70309
C         67.44764        36.20516         1.58244
C         66.42060        35.47275         0.71115
C         67.29851        37.65576         1.89010
C         66.12461        38.27986         1.47479
C         67.24620        40.53008         1.97710
C         65.95117        39.70676         1.75265
C         67.19392        41.97472         1.63097
C         65.99686        42.62928         1.46113
C         67.20317        44.82791         0.98601
C         65.94385        44.15340         1.47067
C         67.20970        46.13651         0.53091
C         65.96111        46.84617         0.31824
C         67.19944        48.88583        -0.40346
C         65.95955        48.18733        -0.13089
C         67.17024        50.24750        -0.85648
C         65.91847        50.93400        -1.02632
C         67.15704        52.98191        -1.80467
C         65.89298        52.28877        -1.52557
C         67.17112        54.31859        -2.20202
C         65.91004        55.02509        -2.48127
C         67.15638        57.24598        -2.84300
C         65.89254        56.52167        -2.40387
C         66.86860        58.62860        -3.24260
C         65.70883        59.26730        -2.84472
C         67.29337        61.75071        -1.61468
C         65.93691        61.42064        -2.08298
C         67.35538        62.66333        -0.57051
C         66.16292        63.42781        -0.18591
C         67.51757        64.90729         1.35149
C         66.20948        64.28903         1.03652
C         67.54835        66.08372         2.19484
C         66.33880        66.68324         2.66561
C         67.67594        68.31191         3.90394
C         66.44667        67.80962         3.50961
C         69.91879        31.91202         2.46296
C         69.70588        33.34159         2.73664
C         68.52854        34.01710         2.09969
C         69.92242        36.52905         3.04420
C         68.24246        35.32257         2.42230
C         69.78116        37.73477         2.43731
C         68.49686        38.42594         2.20433
C         69.79491        40.62984         2.11431
C         68.51375        39.80179         2.00071
C         69.68300        41.97674         1.41073
C         68.46795        42.64839         1.42305
C         69.74605        44.79397         0.85734
C         68.45284        44.11054         1.25712
C         69.66266        46.16628         0.33988
C         68.45921        46.83038         0.22221
C         69.66972        48.87529        -0.53175
C         68.42878        48.20656        -0.24240
C         69.65368        50.24334        -0.95260
C         68.40751        50.92599        -1.13099
C         69.65777        52.93749        -1.80084
C         68.41249        52.27817        -1.59162
C         69.69695        54.28598        -2.41476
C         68.39866        55.00498        -2.64993
C         69.62643        57.01723        -3.30765
C         68.41273        56.45596        -3.02427
C         69.86791        59.28431        -3.15108
C         68.68041        60.02569        -2.98111
C         69.79912        61.37553        -1.34698
C         68.54458        61.03403        -2.01106
C         69.84925        62.40729        -0.36024
C         68.57171        62.85984         0.30244
C         69.95076        64.75264         1.30869
C         68.66385        64.24965         0.92903
C         70.02645        66.05343         1.99292
C         68.80211        66.64789         2.55445
C         70.17557        68.20135         3.98518
C         68.88614        67.74379         3.44906
C         70.24169        69.27400         4.90136
C         72.29415        32.06691         2.99664
C         71.11725        31.30734         2.67330
C         72.24869        33.41972         3.11280
C         70.97894        34.16587         3.09521
C         72.03717        36.12310         1.84148
C         71.19460        35.70589         3.03425
C         71.98864        37.37141         1.35215
C         71.04757        38.35740         1.96029
C         72.06890        40.44910         0.86207
C         71.06073        39.83546         1.74573
C         71.98626        41.73753         0.47598
C         70.85533        42.58970         0.81386
C         71.85345        44.54220        -0.43085
C         70.86170        43.93345         0.43824
C         71.90426        45.88048        -0.62822
C         71.00035        46.81312         0.15692
C         72.11379        48.88481        -0.62851
C         70.91153        48.20818        -0.39068
C         72.11213        50.21599        -1.00924
C         70.89565        50.91915        -1.17613
C         72.13538        53.01721        -1.78447
C         70.88951        52.29717        -1.57684
C         72.19296        54.33637        -2.08338
C         70.94910        55.10489        -2.26038
C         72.14668        57.34566        -2.98084
C         70.91527        56.52520        -2.75657
C         72.21766        58.68061        -2.76803
C         71.06069        59.54843        -2.50944
C         72.25549        61.16515        -1.09365
C         71.03914        60.70603        -1.66030
C         72.28418        62.25601        -0.25948
C         71.07301        62.86979         0.15611
C         72.32739        64.36304         1.75283
C         71.11799        64.02295         1.05509
C         72.42917        65.44989         2.57146
C         71.38016        66.46375         2.62399
C         72.57731        67.88561         4.30220
C         71.37624        67.51195         3.67623
C         72.61415        68.93873         5.21283
C         71.44087        69.64162         5.50243
O         50.62709        43.83551         1.23343
O         54.22249        56.71254         0.45305
O         55.18806        55.03500        -2.87559
O         68.78814        35.89772         3.58277
O         57.59671        46.22250         1.33240
O         70.75920        56.21194        -1.30618
O         66.37011        40.14454         3.09158
O         49.65602        49.37493        -2.30630
O         58.32316        39.94110        -2.38557
O         69.09952        54.25545        -3.74836
O         70.02417        33.73553         4.10941
O         67.64877        36.04353         0.13231
O         56.31692        47.46748        -1.83743
O         42.10459        50.99178         2.73720
O         57.90441        56.97427         0.14646
O         69.34387        44.73190         2.27214
O         60.41207        46.44648        -1.24129
O         50.54093        46.43916         0.98105
O         65.27228        54.42264        -3.65620
O         70.94022        66.98893         1.33315
O         66.80580        57.04181        -1.38680
O         55.66588        41.91569        -2.23650
O         62.57550        54.49101        -3.49095
O         65.74096        60.61707        -3.20666
O         61.09945        64.92407        -0.72354
O         48.24050        54.57940         1.53289
O         69.73597        58.20529        -4.04480
O         46.68198        46.13014         1.13746
O         65.52344        63.74922         2.20936
O         62.27523        57.65898        -0.30880
O         39.64134        50.94882         3.90319
O         65.49419        64.07403        -1.31322
O         61.65814        48.80739         1.41684
O         67.71995        59.53124        -3.89870
O         60.58597        55.93013        -3.20511
O         54.91122        44.46932        -2.65714
O         71.68449        39.24397         2.95401
O         57.66920        61.62844        -1.99991
O         57.60390        48.77576         1.28469
O         48.49543        46.71170        -1.92953
O         71.59849        46.94820         1.49118
H         71.34212        46.16118         2.01926
O         68.37424        61.94357         1.43705
H         69.16581        62.00777         2.01231
O         64.12949        59.44139        -0.03430
H         63.88132        58.57478         0.36464
O         43.10144        48.23276        -1.83900
H         43.89467        48.10283        -2.40406
O         54.32847        48.76117         0.99721
H         55.08780        49.13150         1.49654
O         60.80283        40.75270        -2.22593
H         60.02049        40.79481        -2.82551
O         58.15680        43.54831         1.71617
H         57.90264        44.44521         2.05192
O         69.89577        40.98363         3.51730
H         70.52483        40.33945         3.92447
O         64.33734        41.93947         3.05511
H         65.03233        41.41151         3.51968
O         56.99017        58.87883        -2.85384
H         57.07150        59.82672        -3.11002
O         63.10787        61.04910        -3.11266
H         63.15065        61.98432        -3.40128
O         54.61900        52.59069        -3.18531
H         55.01842        53.36043        -3.65907
O         41.63543        50.37332        -0.79960
H         42.01362        49.81705        -1.52435
O         53.81587        48.00145        -2.56130
H         53.96823        48.93400        -2.83021
O         53.73559        45.12818        -3.11557
H         54.00444        46.08404        -3.19619
O         71.96362        36.01745         4.22526
H         71.44278        35.69955         4.99371
O         60.83916        43.80662         2.20610
H         59.92407        43.46241         2.36602
O         51.98088        59.02874        -2.24477
H         51.91434        60.00140        -2.35822
O         65.86558        44.50126         2.89686
H         66.71516        44.24255         3.31492
O         46.90097        48.75459        -2.41584
H         47.76448        48.95852        -2.85190
H         37.71176        48.67069         2.45002
H         35.78487        49.87237         3.36428
H         37.85238        53.63615         3.25491
H         35.86260        52.31684         3.77846
H         39.33601        47.75353         1.77178
H         39.23631        54.57088         2.22946
H         41.28200        46.66248         0.75163
H         41.10784        55.86161         1.36179
H         44.70404        44.59487        -0.28196
H         42.61425        45.80887        -0.54254
H         44.75988        58.15830         0.58866
H         42.70045        56.89884         0.86624
H         46.48839        43.56960        -0.30060
H         46.39044        59.13773         0.58873
H         48.62333        42.43978        -0.20607
H         48.44816        60.40150         0.34207
H         52.54276        40.38978        -0.68583
H         50.41719        41.47508        -0.18226
H         52.27248        62.47960         0.63575
H         50.16866        61.27499         0.64791
H         54.33546        39.47365        -0.40703
H         54.00425        63.31473         0.98468
H         56.48840        38.39517        -0.62941
H         56.12446        64.43969         1.15688
H         60.32458        36.41772        -0.62919
H         58.24546        37.50688        -1.22563
H         59.91336        66.13295         2.10181
H         57.79971        65.15006         1.52797
H         62.02515        35.62178        -0.75095
H         61.69625        66.92354         2.45749
H         64.14134        34.47150        -0.36882
H         63.86142        67.76256         3.17786
H         67.69664        32.27538         1.04987
H         65.72838        33.41863         0.19751
H         67.68658        69.16702         4.59147
H         65.54132        68.29431         3.89742
H         69.07668        31.31729         2.08138
H         69.33895        69.84581         5.15254
H         73.25854        31.54260         3.05319
H         71.22287        30.22755         2.49654
H         73.17887        33.99575         3.22717
H         72.74071        35.38898         1.41934
H         72.64715        37.67845         0.52563
H         72.95293        39.84887         0.60349
H         72.80487        42.16659        -0.11722
H         72.56761        43.89639        -0.96248
H         72.66399        46.30573        -1.30100
H         73.06765        48.36076        -0.47975
H         73.07535        50.71485        -1.16949
H         73.08352        52.47991        -1.65521
H         73.16024        54.85139        -2.16680
H         73.08376        56.80027        -3.17615
H         73.20966        59.15866        -2.81568
H         73.19289        60.65980        -1.36175
H         73.25020        62.62696         0.10491
H         73.16729        63.65542         1.72786
H         73.30125        65.54321         3.23379
H         73.51017        67.36079         4.05431
H         73.56387        69.22561         5.68431
H         71.46259        70.48399         6.20739
