         276
 CSIRO Nanostructure Databank - Neutral Graphene Oxide Data Set
C        -10.71512         0.78628        -1.53562
C        -10.05839         1.60471        -0.50508
C         -8.80285         0.46901         0.91739
C         -7.55689         1.23605         1.10264
C         -6.31637         0.54977         0.59690
C         -5.19131         1.51467         0.18808
C         -3.88447         0.77966        -0.21558
C         -2.54109         1.36197         0.18108
C         -1.27109         0.68299        -0.24225
C          0.00114         1.49231        -0.35815
C          1.26063         0.84950        -0.89681
C          2.57849         1.44522        -0.44396
C          3.85619         0.79251        -0.87809
C          5.15207         1.41987        -0.36515
C          6.40632         0.75925        -0.93808
C          7.66887         1.55080        -0.86979
C          8.81786         1.18329         0.04801
C         10.19387         1.61997        -0.31657
C         11.29179         0.70780        -0.01265
C         -9.35779         2.73571        -0.79866
C         -8.49570         3.50167         0.15820
C         -7.57738         2.75552         1.12996
C         -6.26944         3.37828         1.58486
C         -5.01616         2.66590         1.17005
C         -3.69792         3.42314         1.21693
C         -2.49661         2.83114         0.53090
C         -1.18625         3.55592         0.56854
C          0.10194         2.71821         0.57987
C          1.29969         3.56853         0.15361
C          2.61577         2.83171         0.12247
C          3.95047         3.58755         0.32540
C          5.10942         2.94220        -0.44452
C          6.35350         3.74447        -0.67190
C          7.66911         3.06709        -0.92862
C          8.98705         3.78155        -0.80460
C         10.24437         2.95593        -0.61659
C         -8.06800         4.83996        -0.36699
C         -7.73785         5.94226         0.29568
C         -6.11367         4.85820         1.95115
C         -5.02968         5.55681         1.08896
C         -3.69001         4.90553         1.47170
C         -2.37670         5.67227         1.48826
C         -1.10140         4.93556         1.19131
C          0.14904         5.73949         0.94826
C          1.28563         5.06154         0.23907
C          2.59318         5.82139         0.12138
C          3.88959         5.08639         0.03201
C          5.18258         5.85913         0.17866
C          6.43882         5.16473        -0.20405
C          7.63173         5.95461        -0.64077
C          8.97658         5.27381        -0.39232
C         -7.55880         7.20657         0.64173
C         -6.30555         7.88564         1.20547
C         -5.00186         7.08814         1.00457
C         -3.71139         7.84838         1.09790
C         -2.41590         7.18008         1.46529
C         -1.14758         7.97729         1.26881
C          0.14340         7.24013         1.03122
C          1.23034         7.91663         0.16015
C          2.63297         7.27803         0.60218
C          3.80769         8.03307        -0.00147
C          5.11139         7.32918        -0.13722
C          6.06828         7.82864        -1.23089
C          7.46148         7.22964        -1.05211
C         -6.12995         9.27162         0.61185
C         -4.97389         9.94466         0.66746
C         -3.72980         9.36979         1.30556
C         -2.44143        10.01091         0.79578
C         -1.23544         9.39922         0.81875
C          0.06319        10.20176         0.70647
C          1.27793         9.43246         0.19791
C          2.36402        10.04213        -0.32803
C          3.51916         9.23235        -0.90991
C          4.81912         9.98666        -1.11909
C          5.99206         9.34541        -1.25882
C        -10.81242        -0.56684        -1.69034
C        -10.28359        -1.65559        -0.86463
C         -8.81274        -0.85580         0.66540
C         -7.59383        -1.66063         0.35882
C         -6.45271        -0.76601        -0.18878
C         -5.10757        -1.49729        -0.25079
C         -3.90553        -0.67229        -0.62418
C         -2.61642        -1.38147        -1.05829
C         -1.32399        -0.61889        -1.00820
C         -0.02895        -1.36439        -1.22647
C          1.27116        -0.63255        -1.25505
C          2.53723        -1.44305        -1.02600
C          3.83845        -0.69144        -1.04022
C          5.09129        -1.47868        -0.74858
C          6.39998        -0.74841        -0.69543
C          7.55475        -1.31934         0.07301
C          8.92546        -1.15187        -0.57360
C         10.06138        -1.51271         0.32303
C         11.21336        -0.61682         0.34981
C         -9.83160        -2.85703        -1.30407
C         -9.04206        -3.77245        -0.36303
C         -7.64810        -3.09677        -0.09730
C         -6.43041        -3.61235        -0.90623
C         -5.09955        -2.97923        -0.44971
C         -3.78673        -3.68683        -0.73690
C         -2.66907        -2.88811        -1.40647
C         -1.28047        -3.59619        -1.27573
C         -0.09655        -2.79849        -0.78451
C          1.11657        -3.47196        -0.23548
C          2.46351        -2.82024        -0.42774
C          3.64345        -3.40485         0.31470
C          4.97245        -2.70192         0.12589
C          6.22830        -3.32687         0.60852
C          7.63848        -3.25550        -0.05374
C          8.79867        -3.61316         0.87210
C          9.96086        -2.73114         0.96881
C         -8.87516        -5.18748        -0.94907
C         -7.58812        -5.87264        -0.53607
C         -6.35753        -5.15540        -0.98080
C         -5.06830        -5.92094        -1.04385
C         -3.75714        -5.17398        -0.91336
C         -2.45995        -5.90604        -1.21727
C         -1.18121        -5.09616        -1.25238
C          0.17842        -5.80047        -0.95288
C          1.12045        -4.97280        -0.06497
C          2.34085        -5.65169         0.49279
C          3.60704        -4.84939         0.76514
C          4.94627        -5.57825         0.72997
C          6.14625        -5.08092         1.55299
C          7.49677        -5.69554         1.19766
C          8.70772        -4.86912         1.41429
C         -7.54490        -7.10213         0.01194
C         -6.37412        -8.04788        -0.14291
C         -5.07846        -7.38506        -0.64831
C         -3.75463        -8.00082        -0.32693
C         -2.45622        -7.31375        -0.70303
C         -1.21190        -7.93521        -0.14704
C          0.06289        -7.18559        -0.29990
C          1.38583        -7.96613        -0.33177
C          2.45313        -7.17880         0.52718
C          3.78076        -7.78859         0.10206
C          5.04741        -6.99993         0.26654
C          6.36593        -7.79698         0.28640
C          7.54542        -6.99838         0.82400
C         -6.11432        -9.00722         1.00174
C         -4.92299        -9.56280         1.27234
C         -3.59844        -9.03027         0.77883
C         -2.54356       -10.08868         0.33713
C         -1.19204        -9.39563         0.15241
C         -0.00665       -10.02909         0.37305
C          1.28955        -9.37953         0.23310
C          2.48230        -9.98100         0.50619
C          3.77637        -9.28639         0.24924
C          5.04648        -9.88592         0.73035
C          6.18432        -9.18173         0.87197
O         -4.44126        -8.35676        -1.56039
O          0.43554         1.70036        -1.72527
O          2.67689        -2.63579        -1.85882
O          0.59949        -1.01973        -2.48560
O          5.36439         3.51724        -1.73743
O          0.15527        -2.84215         0.66221
O          0.58942         6.44433         2.14535
O         -3.61817         3.95959         2.56865
O         -5.81340        -5.61288        -2.26731
O         -1.73426         7.78577         2.60468
O         -4.11352         0.38461        -1.60020
O         -2.09597        -0.64398        -2.22310
O          5.21174        -5.88609        -0.67568
O          9.04845        -0.82762        -1.73845
O         -6.63977         0.48978         1.99154
O         -2.00228         3.58723        -0.63335
O         -0.60285        -7.15036         0.96746
O         -5.54831         2.51996         2.51079
O          1.20107        -5.29370         1.34338
O          0.99376         7.52380        -1.15214
O          3.41132        -3.77239         1.70169
O          3.91202         0.21204        -2.19005
O          5.63127        -2.42570         1.44897
O         -2.43217        -7.01243        -2.14230
O         -7.33161        -2.77465         1.27185
O         -1.02099        -4.34119        -2.49135
O         -6.64197         5.35385         2.92232
O          4.88177         8.25084         0.97390
O          6.02840        -1.54254        -1.85180
O         -4.24482         7.45603        -0.20631
O         -4.95061        -2.38651         0.87867
O          0.96199         4.37470        -1.00120
O        -10.10923        -1.40342         0.51722
O         -3.48799        -4.54502         0.39611
O          5.95197        -4.76628         2.74899
O          8.36448         3.56800        -2.11078
O         -8.79113         3.39674         1.57530
O          3.21109         5.54357        -1.16513
O          1.84406        -8.04532        -1.63653
O          8.55331         1.01710         1.23385
O          6.09515         5.39541         1.21704
O          7.69492        -3.63206        -1.24421
O        -10.04070         1.14411         0.83342
O          7.16114         1.04153        -2.13664
O          2.58980         1.66263         1.00408
O          3.78002        -8.59811        -1.08659
O         -1.77631         0.53320         1.12737
O         -1.54237         5.11092         2.55000
O         -9.70698        -3.97144         0.88031
H         -9.92864        -3.08651         1.25534
O         -3.78351         9.64563         2.72024
H         -3.00961         9.19853         3.13648
O         -3.03001        -8.28737         1.88546
H         -3.07671        -8.83413         2.69672
O         -6.62613        -3.11942        -2.25562
H         -6.33854        -3.82712        -2.88137
O          4.28381         3.44523         1.72773
H          3.49888         3.65177         2.27847
O         -5.67703         2.18905        -0.99623
H         -5.62926         1.54567        -1.74373
O          0.35662        10.69679         2.02565
H          0.40094         9.93623         2.64216
O         -6.51333         8.05956         2.61776
H         -6.70562         7.17510         3.01683
O         -5.26657         5.09263        -0.26515
H         -4.81733         5.72428        -0.87455
O         -8.82834        -5.10761        -2.37797
H         -8.60107        -5.99323        -2.72972
O          0.28806         2.27922         1.92862
H         -0.44236         1.66191         2.16679
O          9.26660         5.36863         1.00927
H          8.42326         5.37506         1.51062
O          2.79109         7.29886         2.00930
H          3.63345         7.77857         2.20839
O          6.69245        -8.03374        -1.10552
H          6.57734        -7.18005        -1.58139
O          0.87742        -5.91709        -2.18879
H          0.29014        -6.29501        -2.87655
O          5.27853         1.03114         1.03314
H          4.78482         1.69164         1.59025
O         -3.06348        -2.94898        -2.78597
H         -2.50813        -2.31044        -3.29027
O          2.30050        -7.54171         1.90398
H          1.58815        -6.97523         2.28482
O         -6.87156        -8.91411        -1.20651
H         -6.08317        -9.24176        -1.70028
O          5.56868         7.32186        -2.48712
H          4.67907         7.73239        -2.64943
O          7.57091        -1.04260         1.39952
H          6.73061        -0.63746         1.70981
O         -6.84076        -0.39676        -1.53075
H         -6.82935        -1.21442        -2.08919
O          3.12133         8.70241        -2.19835
H          2.25777         8.20249        -2.06091
O         -2.95488       -10.74219        -0.86071
H         -3.18941       -10.06838        -1.53494
H         12.15596        -1.07950         0.68814
H         12.29648         1.16114         0.00300
H         11.21043         3.46679        -0.76028
H          9.79061         5.80705        -0.94724
H          8.33328         7.83577        -1.34673
H          6.91550         9.91737        -1.43980
H          4.77923        11.08536        -1.18037
H          2.40491        11.14143        -0.39550
H         -0.10779        11.09807         0.05949
H         -2.48892        11.08435         0.54989
H         -4.91256        10.96497         0.25788
H         -7.01598         9.74481         0.16087
H         -8.46178         7.84607         0.69407
H         -7.94513         4.87074        -1.46743
H         -9.35951         3.09900        -1.83742
H        -11.08004         1.37921        -2.39199
H        -11.24959        -0.90478        -2.64487
H         -9.90560        -3.13428        -2.36513
H         -9.75417        -5.81042        -0.62948
H         -8.49207        -7.58273         0.30629
H         -7.01237        -9.41982         1.48764
H         -4.86251       -10.35416         2.03787
H         -2.44415       -10.87711         1.12651
H         -0.01171       -11.09241         0.66125
H          2.52474       -11.00657         0.90334
H          4.99555       -10.92070         1.10279
H          7.07267        -9.67373         1.29527
H          8.52833        -7.46793         0.65210
H          9.55385        -5.30483         1.97234
H         10.80052        -3.07938         1.59325
