         288
 CSIRO Nanostructure Databank - Neutral Graphene Oxide Data Set
C        -11.09612         0.65586        -1.06729
C         -9.87587         1.37418        -0.52786
C         -8.54136         0.76708        -1.06484
C         -7.29335         1.52032        -0.74102
C         -6.11788         0.67529        -0.27827
C         -4.95740         1.37186         0.35144
C         -3.65867         0.66617         0.62998
C         -2.40081         1.44959         0.86104
C         -1.10734         0.67088         0.79854
C          0.19116         1.40684         0.62553
C          1.53340         0.67804         0.70481
C          2.73837         1.45116         1.24720
C          4.01422         0.68723         1.04984
C          5.22157         1.43676         0.60960
C          6.30932         0.77757         0.11767
C          7.56019         1.48940        -0.24362
C          8.63772         0.75597        -0.98700
C          9.96436         1.48443        -1.27884
C         11.07820         0.74448        -0.55450
C         -9.81857         2.85162        -0.76448
C         -8.78053         3.60116         0.01664
C         -7.34154         3.03733        -0.38933
C         -6.30621         3.52887         0.65083
C         -4.96472         2.87960         0.27961
C         -3.67473         3.62156         0.33129
C         -2.36596         2.87374         0.38506
C         -1.06638         3.60414         0.21830
C          0.30334         2.92707         0.35577
C          1.34663         3.66801         1.21101
C          2.66446         2.95896         1.30495
C          3.95748         3.71476         1.11189
C          5.19976         2.93497         0.72741
C          6.19308         3.64994        -0.16103
C          7.49852         2.96693        -0.41310
C          8.54071         3.59747        -1.32046
C          9.88050         2.97069        -1.01086
C         -8.76910         5.12326        -0.25525
C         -7.48181         5.84155         0.16311
C         -6.27845         5.07365         0.62190
C         -4.96020         5.81856         0.64142
C         -3.63985         5.09043         0.60113
C         -2.36103         5.81338         0.30147
C         -1.01742         5.11791        -0.01973
C          0.02720         5.88147         0.81640
C          1.33561         5.22538         1.31457
C          2.56201         5.90244         0.68633
C          3.86285         5.16022         0.62280
C          5.21061         5.91179         0.56553
C          6.15303         5.12582        -0.34943
C          7.33165         5.79291        -0.98913
C          8.44372         5.10520        -1.33825
C         -7.44436         7.19799         0.05672
C         -6.24004         8.03937         0.24980
C         -4.93327         7.30509         0.38044
C         -3.72773         7.93965        -0.24751
C         -2.40134         7.24817        -0.14632
C         -1.13814         8.05877        -0.04716
C          0.00394         7.37919         0.68706
C          1.25450         8.20504         1.01387
C          2.58871         7.41013         0.87317
C          3.85617         8.13895         0.55604
C          5.09487         7.37974         0.13977
C          6.00641         7.98158        -0.88644
C          7.07763         7.16297        -1.59365
C         -6.20522         9.45847        -0.21099
C         -5.04480        10.13428        -0.34128
C         -3.73621         9.42865        -0.45848
C         -2.44794        10.14870        -0.28239
C         -1.26032         9.53821        -0.02748
C          0.01245        10.33480         0.23134
C          1.29684         9.46801         0.09394
C          2.51063        10.26684         0.42340
C          3.88320         9.66968         0.28800
C          4.50700         9.94226        -1.07578
C          5.49049         9.18854        -1.58779
C        -11.09447        -0.67383        -1.23634
C         -9.82923        -1.46121        -1.28352
C         -8.51812        -0.72888        -1.24517
C         -7.23376        -1.51852        -1.05217
C         -5.96180        -0.76587        -0.71892
C         -4.70999        -1.52498        -0.33111
C         -3.42061        -0.78417         0.16600
C         -2.46806        -1.49099         1.14752
C         -1.17566        -0.68264         1.51760
C          0.13464        -1.52180         1.42902
C          1.48917        -0.76268         1.35055
C          2.58679        -1.55091         0.58457
C          3.97234        -0.86617         0.90390
C          4.99660        -1.36179        -0.10164
C          6.35161        -0.71533         0.14471
C          7.58370        -1.46803        -0.21718
C          8.67141        -0.73245        -0.94514
C         10.04472        -1.43886        -1.19440
C         11.10795        -0.59680        -0.50288
C         -9.80202        -2.86407        -0.83422
C         -8.66915        -3.56988        -0.59243
C         -7.30204        -3.02032        -0.85418
C         -6.04375        -3.87361        -0.55136
C         -4.73819        -3.04773        -0.23129
C         -3.62541        -3.73357         0.51819
C         -2.48317        -2.98369         1.17657
C         -1.18911        -3.77708         1.32267
C          0.13870        -3.03510         1.35144
C          1.45690        -3.81392         1.12936
C          2.72683        -3.03574         0.89356
C          3.89824        -3.63095         0.14210
C          4.97502        -2.88238        -0.23100
C          6.14346        -3.42121        -1.06007
C          7.47486        -2.98180        -0.39642
C          8.72149        -3.59313        -1.24500
C          9.93215        -2.86973        -0.73778
C         -8.84940        -4.92515         0.06624
C         -7.58030        -5.72946         0.08704
C         -6.37171        -4.93004         0.57206
C         -5.12502        -5.83398         0.84528
C         -3.79266        -5.16492         0.97906
C         -2.52418        -5.98141         0.88261
C         -1.20585        -5.25170         1.06856
C          0.06174        -6.00334         0.70937
C          1.46160        -5.34564         0.83958
C          2.38040        -5.69128        -0.35446
C          3.66629        -4.94423        -0.54067
C          4.86710        -5.68510        -1.07544
C          6.16013        -4.94791        -1.20665
C          7.42232        -5.69048        -0.87641
C          8.62410        -5.06991        -0.90568
C         -7.60364        -7.04187        -0.20191
C         -6.42600        -7.92611        -0.07743
C         -5.13203        -7.29630         0.43575
C         -3.90290        -7.94313        -0.03556
C         -2.59584        -7.33236         0.25866
C         -1.42603        -7.78442        -0.60938
C         -0.09223        -7.27792        -0.05728
C          1.03980        -7.91809        -0.81991
C          2.32948        -7.11431        -0.94767
C          3.60788        -7.94018        -0.90737
C          4.89441        -7.19339        -0.96090
C          6.14849        -7.92359        -0.44514
C          7.23436        -6.92039        -0.00770
C         -6.32731        -9.12625        -0.92434
C         -5.15540        -9.79550        -1.06482
C         -3.90290        -9.22490        -0.60837
C         -2.67248        -9.93621        -0.78622
C         -1.41534        -9.33003        -0.61451
C         -0.21229       -10.01658        -0.42300
C          1.07862        -9.37321        -0.44821
C          2.26177        -9.98915        -0.14285
C          3.63071        -9.41048        -0.39889
C          4.58835        -9.46053         0.78147
C          5.75669        -8.80681         0.73205
O          4.40113        -1.39949         2.16228
H          3.88190        -0.92841         2.85927
O          2.41535        -3.52299         2.20731
O          1.87901        -0.60235         2.71486
H          1.53153        -1.37993         3.21597
O          8.06765         2.39055         0.79773
O          0.10099        -7.32188         1.36988
O         -0.51481         0.74009        -0.50644
O         -5.69985         5.54393         1.87504
O         -6.71533        -4.17454         1.67828
O         -2.45498        -7.18744         1.70811
O         -1.17646        -4.72208         2.43404
O          6.79937        -6.40636         1.26300
H          7.22374        -5.52710         1.41048
O         -0.53297         6.70708         1.86948
O         -2.76252         5.52616         1.67567
O         -3.23002         1.06506         1.97497
O          1.13763         8.64408         2.36923
H          0.91602         7.84602         2.90622
O         -3.58849        -3.62766        -0.93568
O          5.80097         5.90563         1.87083
H          5.35951         6.59983         2.40736
O          8.50366        -3.40295        -2.62938
H          9.07161        -2.64511        -2.93076
O         -7.09025        -2.43336        -2.17541
O         -6.01517         0.79351         1.17441
O          4.72851        10.26319         1.28269
H          4.50053         9.84999         2.14284
O         -2.96930        -2.18867         2.30710
O          3.03778         5.36189        -0.57107
O          1.95091         0.65511        -0.68271
H          1.18207         0.37354        -1.23030
O         -7.74620         1.38342        -2.12510
O          4.31468        -7.80263        -2.18471
O          5.51743         4.22985        -1.32914
O          3.52940         1.03580         2.38602
O          6.28241         8.14660         0.53401
O          8.13350        -0.03140        -2.11268
O          6.64756        -8.77560        -1.49379
H          6.68240        -8.25859        -2.32653
O          3.52382         7.80498         1.94151
O          2.50496        -4.76073        -1.45264
O         -4.56633        -5.49846         2.15021
O          5.39586        -5.32413        -2.40066
O         -6.61653         3.11685         1.97395
H         -6.32655         3.82595         2.59072
O         -0.02817        10.94012         1.52221
H          0.20420        10.24684         2.18754
O          0.84639        -7.78903        -2.31921
O          1.77253         3.15988         2.49235
O          0.17391        -2.35522         2.63528
O         -5.96109        -8.15147         1.29001
O          7.30450        -1.14102         1.18586
O         -0.62484         5.26799        -1.38187
H         -1.15122         4.64077        -1.92440
O         -9.85105         1.01634         0.86844
H         -9.50011         1.78551         1.38934
O          7.50288        -3.60153         0.89737
H          7.38668        -2.87098         1.56125
O          5.01273         3.46463         2.07242
O         -1.73386         2.97213        -0.93317
O         -1.28153        -0.31232         2.89541
H         -1.65756        -1.08212         3.38202
O         -1.60404        -7.23810        -1.86722
O         -5.78242        -4.64090        -1.72661
H         -5.76458        -4.01781        -2.48790
O         -4.36718         3.36964        -0.94998
O          4.62224        -0.83344        -1.40565
H          5.15923        -1.31826        -2.08760
O         -6.97850         3.73346        -1.58761
H         -7.22040         3.15986        -2.35399
O         -9.11794        -1.11972        -2.52276
O         -1.56151         7.48280        -1.31064
O          2.21454        -1.65423        -0.80969
H          2.92679        -1.23724        -1.36219
O          8.17773         3.19974        -2.70433
H          8.44696         3.92635        -3.30623
O         -4.94074        -1.04160        -1.70862
O         -9.88507         5.65827         0.46469
H         -9.80772         6.63308         0.50725
O         -3.88091         8.47574        -1.59416
O          6.67007         6.93744        -2.95682
H          6.00885         6.21263        -2.96618
O         -8.98521         3.43480         1.42633
H         -9.64626         4.11814         1.68312
O          1.38372         8.92448        -1.24191
H          1.39296         9.66298        -1.88532
O          2.13706        -5.99557         1.92453
H          1.60632        -5.87120         2.74086
O          6.04446        -2.82265        -2.36514
H          5.81371        -3.53471        -3.00574
O         -5.50748         7.98880         1.53153
O          2.02381        -6.91878        -2.42225
H          2.77295        -7.38474        -2.92572
O          1.43951         5.58649         2.70342
H          1.69946         4.77546         3.20781
O         -9.92909        -5.62708        -0.55232
H         -9.75673        -5.67108        -1.51507
O          0.89223         3.04685        -0.95662
H          0.26921         2.62475        -1.58974
O         10.29547        -1.41030        -2.61655
H         10.25680        -0.45466        -2.89469
O          4.19736       -10.22409        -1.44351
H          5.13483        -9.93607        -1.57938
O         10.22897         1.34418        -2.71389
H          9.46282         1.78444        -3.15886
O         -2.57537        -0.69567        -1.00341
H         -3.15350        -0.62968        -1.80008
H         11.93673        -1.11227         0.00636
H         11.87607         1.33619        -0.08075
H         10.77877         3.54580        -1.29757
H          9.23868         5.63906        -1.88703
H          8.02314         7.76007        -1.63074
H          5.92844         9.42879        -2.56822
H          4.15752        10.82925        -1.62499
H          2.38716        11.08216         1.15434
H          0.06923        11.16494        -0.52269
H         -2.49113        11.24935        -0.26406
H         -5.05842        11.21636        -0.54286
H         -7.16444         9.99602        -0.26589
H         -8.33733         7.71982        -0.32873
H         -8.92210         5.30118        -1.36016
H         -9.96123         3.16675        -1.81326
H        -12.03772         1.22159        -1.12425
H        -12.02263        -1.20373        -1.50189
H        -10.76495        -3.33205        -0.57538
H         -9.14311        -4.75139         1.13643
H         -8.55451        -7.49746        -0.52656
H         -7.24153        -9.49148        -1.41545
H         -5.11650       -10.73037        -1.64302
H         -2.72427       -10.98965        -1.10453
H         -0.23347       -11.09404        -0.19793
H          2.24612       -11.05253         0.13684
H          4.34449       -10.10551         1.63812
H          6.47289        -8.88760         1.56243
H          8.21191        -7.46562         0.10712
H          9.51576        -5.60233        -0.53718
H         10.17953        -3.05637         0.32244
