         324
 CSIRO Nanostructure Databank - Neutral Graphene Oxide Data Set
C          1.36843         3.31420         1.21360
C          0.16632         3.98402         1.25607
C          0.91702         6.31065         1.60005
C         -0.02975         5.40627         1.16236
C          1.08109         7.71126         1.31942
C         -0.03320         8.47489         0.99061
C          1.17872        10.61386         1.04722
C          0.01065         9.86565         0.84107
C          1.19806        12.00610         0.73502
C          0.07069        12.68086         0.20801
C          1.27024        14.81457        -0.01224
C          0.07385        14.03731        -0.06964
C          1.25693        16.26083        -0.24624
C          0.03148        16.97838        -0.29763
C          1.19921        19.12351        -0.29378
C          0.00438        18.35787        -0.31508
C          1.18893        20.56793        -0.25940
C         -0.04238        21.34006        -0.24052
C          1.14822        23.49495         0.00103
C         -0.07893        22.69668        -0.16046
C          1.18634        24.98914        -0.13796
C         -0.00258        25.75703         0.17323
C          1.26213        27.86555         0.24338
C          0.00538        27.11094         0.30070
C          1.28067        29.34204         0.09792
C          3.73758         3.33946         0.39629
C          2.65482         3.94412         1.00829
C          3.67926         6.21827         0.79996
C          2.82812         5.32936         1.39661
C          3.72983         7.63551         1.31148
C          2.40330         8.37520         1.60396
C          3.72198        10.65082         1.50937
C          2.39710         9.91107         1.54889
C          3.71174        12.15736         1.35704
C          2.40414        12.82500         0.98016
C          3.74499        14.79742         0.15457
C          2.44881        14.17508         0.38738
C          3.74779        16.28565        -0.25171
C          2.45806        16.99759        -0.25877
C          3.68203        19.15658        -0.33092
C          2.44511        18.42479        -0.28496
C          3.65862        20.56836        -0.38798
C          2.40676        21.25364        -0.31039
C          3.62873        23.42709        -0.69641
C          2.43089        22.72249        -0.15339
C          3.60360        24.92085        -0.84228
C          2.36621        25.63976        -0.43340
C          3.59689        27.83418        -0.89799
C          2.47762        27.09577        -0.22085
C          3.60654        29.37312        -0.90984
C          2.37785        30.00592        -0.29278
C          6.07030         3.52857        -0.33072
C          4.89233         4.12406         0.06045
C          6.03142         6.42863        -0.26527
C          4.78936         5.61120         0.03248
C          6.02022         7.94689        -0.02885
C          4.98569         8.41883         1.01117
C          6.17101        10.74897         0.67773
C          5.00516         9.91640         1.24143
C          6.27364        12.11011         1.47036
C          4.99705        12.88131         1.11624
C          6.22338        15.00157         0.63573
C          4.98782        14.17389         0.67701
C          6.21875        16.38173         0.08180
C          4.99020        17.05405        -0.11743
C          6.16043        19.18346        -0.39408
C          4.94698        18.46495        -0.28142
C          6.13424        20.61165        -0.50020
C          4.89718        21.31018        -0.46015
C          6.11748        23.44831        -0.70405
C          4.91705        22.72129        -0.59890
C          6.10100        24.89946        -0.77715
C          4.91112        25.61764        -0.80565
C          6.20396        27.85110        -1.09377
C          4.88855        27.08306        -1.04463
C          6.10712        29.26352        -0.51215
C          4.91068        29.91227        -0.36843
C          8.48999         3.55746        -0.59528
C          7.29267         4.26883        -0.47926
C          8.53571         6.38715        -0.29695
C          7.31400         5.70102        -0.35141
C          8.57977         7.82675        -0.03778
C          7.39279         8.55898         0.22566
C          8.70408        10.59971         0.50309
C          7.45975         9.93881         0.53665
C          8.79690        12.06137         0.73254
C          7.58514        12.84444         1.11915
C          8.74164        14.94022         0.18760
C          7.55447        14.31573         0.80922
C          8.70893        16.35728        -0.08875
C          7.44025        17.07295        -0.04408
C          8.60399        19.16920        -0.64592
C          7.42075        18.48169        -0.36544
C          8.55307        20.58897        -0.99943
C          7.33607        21.34155        -0.68657
C          8.62486        23.46795        -0.74709
C          7.36253        22.74758        -0.74354
C          8.56622        24.90189        -0.54145
C          7.37237        25.58894        -0.65478
C          8.56357        27.79641        -0.05925
C          7.31020        27.05582        -0.40694
C          8.56687        29.27624        -0.14701
C          7.34267        29.94183        -0.22882
C         10.94550         3.48685        -0.61961
C          9.73935         4.22039        -0.57930
C         11.00288         6.32489        -0.51645
C          9.75779         5.65566        -0.46004
C         11.05024         7.77177        -0.37755
C          9.83350         8.49492        -0.05145
C         11.14634        10.61947         0.05978
C          9.89653         9.90163         0.17041
C         11.17531        12.02571         0.03906
C          9.98440        12.77800         0.21310
C         11.09360        14.85305        -0.56633
C          9.91062        14.18434         0.00108
C         11.09027        16.34892        -0.82494
C          9.87069        17.05377        -0.44763
C         11.14240        19.18553        -0.92451
C          9.92501        18.54556        -0.29965
C         11.11743        20.59109        -1.30384
C          9.83272        21.36235        -1.23721
C         11.13543        23.45955        -0.76555
C          9.84966        22.79641        -0.89426
C         11.12850        24.86402        -0.27011
C          9.81562        25.59756        -0.14140
C         11.03729        27.77263        -0.02217
C          9.84759        27.07579        -0.08047
C         11.02198        29.23178         0.09507
C          9.79810        29.93920         0.01247
C         13.42948         3.43759        -0.54403
C         12.19236         4.14076        -0.58369
C         13.46579         6.24305        -0.63253
C         12.20430         5.57693        -0.59509
C         13.46437         7.69573        -0.91142
C         12.25291         8.43855        -0.51232
C         13.70272        10.55917        -0.44932
C         12.38939         9.85593        -0.15878
C         13.68939        12.03173        -0.53888
C         12.46932        12.74025        -0.11345
C         13.56181        14.90632        -0.99118
C         12.41845        14.23171        -0.34504
C         13.58704        16.37019        -1.00567
C         12.38648        17.06883        -0.87428
C         13.61831        19.23964        -0.92184
C         12.36131        18.50842        -0.92007
C         13.66051        20.63024        -0.97667
C         12.43927        21.37411        -1.30952
C         13.61785        23.57383        -0.90346
C         12.34274        22.82672        -1.00285
C         13.57412        24.99721        -0.50748
C         12.38058        25.65909        -0.33505
C         13.49750        27.83255        -0.00676
C         12.32348        27.09479        -0.11442
C         13.47595        29.24788         0.29754
C         12.22566        29.92191         0.28878
C         15.90702         3.42331        -0.39958
C         14.65790         4.11510        -0.48760
C         15.91896         6.35676        -0.35096
C         14.65789         5.55251        -0.55294
C         16.04455         7.59787        -1.26807
C         14.72783         8.38864        -1.30774
C         16.10237        10.56601        -1.13196
C         14.75303         9.92019        -1.36475
C         16.08822        12.04417        -1.30867
C         14.75507        12.70822        -1.10719
C         16.44283        15.09204        -1.14569
C         14.58576        14.10301        -1.43278
C         16.07031        16.32719        -0.45639
C         14.83786        17.09865        -0.81033
C         15.96399        19.21813        -0.04656
C         14.82351        18.47345        -0.64693
C         16.06485        20.64915        -0.26488
C         15.01218        21.32525        -1.09112
C         16.11671        23.56073        -0.24940
C         14.95698        22.85233        -0.88063
C         16.09406        24.97187        -0.15224
C         14.86332        25.71291        -0.52188
C         16.00959        27.85732         0.30544
C         14.80904        27.20426        -0.23209
C         15.93227        29.24893         0.62455
C         14.67404        29.92664         0.55050
C         18.38383         3.39564        -0.32024
C         17.13366         4.10624        -0.37756
C         18.38866         6.22566        -0.42287
C         17.17864         5.53468        -0.42833
C         18.40660         7.68286        -0.48466
C         17.25438         8.40305        -0.81213
C         18.52650        10.52823        -0.61330
C         17.27389         9.84182        -0.88717
C         18.63655        11.99311        -0.77560
C         17.41657        12.80868        -1.12691
C         18.55166        14.86582         0.00651
C         17.44079        14.25186        -0.71476
C         18.51860        16.25969         0.30046
C         17.21816        16.96295         0.29925
C         18.47089        19.11932         0.63646
C         17.17543        18.44332         0.50003
C         18.50162        20.59887         0.50595
C         17.29670        21.36751         0.04928
C         18.38409        23.53988         0.68687
C         17.25263        22.84817         0.20940
C         18.41518        24.96838         0.66603
C         17.23411        25.68673         0.29540
C         18.38117        27.82050         0.89384
C         17.20498        27.12960         0.46732
C         18.33381        29.23679         1.10766
C         17.10557        29.92728         0.99345
C         19.57588         4.06759        -0.26787
C         20.81971         6.21385        -0.13071
C         19.62015         5.50038        -0.28895
C         20.82127         7.60960        -0.05876
C         19.64367         8.36145        -0.21648
C         20.75159        10.49661         0.44858
C         19.65019         9.80921        -0.18872
C         20.77759        11.84408         0.60252
C         19.83227        12.69730        -0.12470
C         20.88533        14.83407         0.68038
C         19.75581        14.14853         0.21463
C         20.86501        16.21322         0.89390
C         19.68662        16.95729         0.69947
C         20.85923        19.18315         1.11108
C         19.65073        18.42382         0.82032
C         20.84204        20.51517         1.36903
C         19.59259        21.29771         1.25805
C         20.77345        23.57695         1.48792
C         19.53992        22.81611         1.28134
C         20.79045        24.93074         1.34865
C         19.60940        25.67695         1.02666
C         20.76341        27.85306         1.45001
C         19.60647        27.11397         1.10745
C         20.71709        29.24150         1.61085
C         19.52198        29.93129         1.46367
O          3.97972        27.32025        -2.20827
O         13.84639         7.88824        -2.36429
O         15.60373        14.70319        -2.19323
O         19.16188        21.98151         2.46929
O          4.60010        10.23441         2.58818
O         12.67637        13.71902         0.98822
O          2.30994        27.43720         1.19518
O         16.14968        18.88942         1.42258
O          5.06725         6.10719        -1.33790
O          6.95283        15.05085         1.92517
O         19.79949        12.41657        -1.56459
O          9.00000        20.97026        -2.37600
O          4.84790         7.70778         2.26798
O          1.96030         5.78638         2.38881
O          2.88913        12.78890         2.38604
O         10.91465        15.36024        -1.91875
O         16.20143        16.20214         1.01175
O         13.49128        10.01847         0.87150
O          7.58107        27.36201         0.98700
O         15.00380        26.68468        -1.60354
O          8.58394        12.51777         2.14725
O          2.27811         9.17788         2.80636
O         14.48559        23.47105        -2.11671
O         10.45642        24.96785         1.03671
O          3.87530        15.22321        -1.25866
O         18.43114        20.99089        -0.91253
O         11.81731        20.91617        -2.55119
O          3.40499        24.03718        -2.01587
O          1.97759        23.12707         1.17939
O         16.89338        12.50796        -2.44702
O          5.56926         8.55864        -1.28018
H          5.15678         7.83074        -1.81214
O          5.81191        11.17281        -0.66413
H          5.75746        10.35864        -1.22724
O          6.60874        27.96132        -2.47829
H          5.79105        28.01472        -3.02121
O          6.27499        11.91499         2.87662
H          7.20413        11.99306         3.19541
O         16.32791         7.17467        -2.61465
H         15.45671         7.05040        -3.06032
O         14.33036        10.33289        -2.68911
H         14.92274         9.91198        -3.34673
O         15.41213        21.11385        -2.47993
H         14.99827        21.84111        -3.00329
O         15.83689         6.89939         1.00468
H         15.79586         6.14655         1.63093
O         10.09735        18.82907         1.15602
H          9.43120        18.29516         1.64204
O          3.55571        29.81903        -2.29836
H          3.81869        29.04809        -2.85547
H          1.33817         2.21562         1.14480
H         -0.74506         3.36602         1.20845
H         -0.95582         5.76468         0.68924
H         -0.99892         7.96507         0.86224
H         -0.92017        10.36812         0.55174
H         -0.86692        12.13438         0.04352
H         -0.85923        14.49735        -0.41975
H         -0.92265        16.43513        -0.29129
H         -0.97023        18.86335        -0.33475
H         -0.99627        20.80353        -0.34122
H         -1.04575        23.21390        -0.24654
H         -0.95551        25.21754         0.27118
H         -0.93677        27.66333         0.43180
H          0.38739        29.89662         0.42513
H          3.72825         2.26766         0.14975
H          2.35720        31.10579        -0.33049
H          6.12480         2.43105        -0.38799
H          4.91334        30.95016         0.00023
H          8.46210         2.45992        -0.65998
H          7.31619        31.03383        -0.09271
H         10.90417         2.38847        -0.66161
H          9.81701        31.03870         0.05066
H         13.41738         2.33762        -0.52633
H         12.20527        31.01259         0.43051
H         15.90294         2.32374        -0.36892
H         14.64508        31.00573         0.76137
H         18.36437         2.29629        -0.29771
H         17.06950        31.00625         1.20306
H         20.52218         3.51182        -0.19372
H         21.76661         5.66419        -0.02844
H         21.78140         8.12342         0.08615
H         21.51090         9.89221         0.96381
H         21.52335        12.30609         1.26437
H         21.82846        14.29164         0.83296
H         21.78916        16.70650         1.22133
H         21.81118        18.64352         1.20611
H         21.76292        21.01692         1.69795
H         21.67848        23.04756         1.81440
H         21.73075        25.46351         1.54131
H         21.72462        27.34485         1.59959
H         21.63503        29.78433         1.87581
H         19.48251        31.01884         1.61784
