         349
 CSIRO Nanostructure Databank - Neutral Graphene Oxide Data Set
C          1.22337         2.31701         0.47901
C          1.12460         3.44071        -0.27153
C          2.50044         1.77000         0.84567
C          2.34142         4.10192        -0.87208
C          1.06870         6.30947        -0.93033
C          1.03597         7.73722        -0.91850
C          2.24206         5.60806        -1.00269
C          2.16950         8.51992        -1.02970
C          1.00874        10.66805        -0.50966
C          1.05870        12.06446        -0.16486
C          2.15263         9.92970        -0.68100
C          2.21328        12.68307         0.22252
C          1.09533        14.96210         0.61585
C          1.19912        16.28848         0.90136
C          2.22828        14.04967         0.79009
C          2.47148        16.92328         1.14217
C          2.53977        18.35399         1.30080
C          3.67025         2.43889         0.54588
C          3.63131         3.70280        -0.17188
C          4.95916         1.88772         0.90740
C          4.77920         4.45154        -0.32540
C          3.48418         6.31880        -1.34635
C          3.44377         7.88552        -1.41606
C          4.77761         5.73437        -0.98705
C          4.73523         8.58518        -1.31183
C          3.43940        10.68596        -0.63419
C          3.47069        11.83935         0.35646
C          4.71806        10.04745        -1.07632
C          4.79058        12.59751         0.34866
C          3.61219        14.70880         1.05014
C          3.65140        16.17965         1.07227
C          4.82443        13.96487         0.68963
C          4.93190        16.84595         1.06188
C          3.73904        19.00425         1.37780
C          4.98107        18.29154         1.25197
C          6.11460         2.59128         0.72923
C          6.05464         4.06385         0.38607
C          7.40960         2.00644         1.01780
C          7.27591         4.57699        -0.34327
C          5.96356         6.46001        -1.16200
C          5.92852         7.88518        -1.37774
C          7.24531         5.76137        -1.01324
C          7.22692         8.62236        -1.68571
C          6.01681        10.71825        -0.73634
C          5.98791        11.89642         0.13805
C          7.29638        10.04134        -1.09644
C          7.26257        12.45036         0.73839
C          6.06787        14.71377         0.46682
C          6.10016        16.13946         0.83133
C          7.37975        13.92552         0.38507
C          7.41998        16.75395         1.20591
C          6.20020        18.95960         1.22380
C          7.44211        18.26417         1.12963
C          8.55101         2.54002         0.51395
C          8.47261         3.71218        -0.39229
C          9.91301         2.02469         0.90188
C          9.72993         4.26383        -0.99516
C          8.47080         6.37295        -1.72250
C          8.47810         7.84223        -1.36396
C          9.79616         5.70738        -1.34157
C          9.73187         8.60307        -1.51157
C          8.58545        10.46796        -0.43818
C          8.55241        11.67486         0.44363
C          9.83186        10.00954        -1.11499
C          9.84984        12.37804         0.90691
C          8.66485        14.59791         0.61292
C          8.62827        16.07926         0.57997
C          9.85836        13.89717         0.71704
C          9.92489        16.81903         0.69285
C          8.65315        18.92787         1.17907
C          9.91177        18.24024         1.11553
C         10.91401         2.07599        -0.27069
C         11.00967         3.50599        -0.79853
C         12.23600         1.52756         0.18192
C         12.26894         4.28275        -0.71777
C         10.98545         6.38891        -1.31496
C         11.03156         7.81565        -1.75356
C         12.22936         5.80000        -0.65351
C         12.35527         8.62167        -1.90885
C         11.10960        10.43173        -0.49085
C         11.12358        11.64476         0.39914
C         12.39136         9.93552        -1.07262
C         12.41933        12.39207         0.59516
C         11.09734        14.61491         0.86335
C         11.15707        16.02748         0.86091
C         12.37170        13.88162         0.96549
C         12.36829        16.74020         1.06857
C         11.10884        18.87594         1.34004
C         12.36286        18.17224         1.24321
C         13.43490         2.24212         0.18860
C         13.49319         3.61470        -0.23092
C         14.65194         1.61988         0.58926
C         14.71694         4.25991        -0.45383
C         13.54217         6.35781        -1.17908
C         13.58402         7.70242        -1.71842
C         14.69847         5.59565        -1.05591
C         14.76986         8.17747        -2.22193
C         13.55866        10.70038        -0.93888
C         13.63932        11.89276        -0.08790
C         14.79112        10.37720        -1.62147
C         14.83214        12.59072         0.07121
C         13.62139        14.64990         0.92043
C         13.62348        16.03962         1.04869
C         14.87087        13.88837         0.79628
C         14.85852        16.80006         1.07554
C         13.56019        18.87904         1.32705
C         14.82459        18.23133         1.19183
C         15.88041         2.26408         0.39866
C         15.92785         3.54552        -0.23441
C         17.09008         1.63900         0.84616
C         17.24343         4.06016        -0.65143
C         15.95710         6.03067        -1.68975
C         16.03125         7.40621        -2.30231
C         17.28269         5.38758        -1.37351
C         17.35147         8.11146        -2.27362
C         16.02624        10.92419        -1.29274
C         16.08139        12.08009        -0.44505
C         17.27580        10.39238        -1.78595
C         17.31260        12.72606        -0.29271
C         16.14587        14.68688         0.77710
C         16.09322        16.15748         0.91357
C         17.28080        14.21239        -0.08903
C         17.30414        16.89200         0.83542
C         16.02368        18.96189         1.14403
C         17.27101        18.31714         0.95939
C         18.33361         2.25343         0.84682
C         18.49563         3.52461         0.05308
C         19.44836         1.45547         1.26384
C         19.65945         4.45776         0.13336
C         18.58476         6.16251        -1.48624
C         18.53572         7.65224        -1.72465
C         19.87142         5.47434        -0.99984
C         19.75594         8.47538        -1.54520
C         18.50149        10.78974        -1.31440
C         18.54850        12.10310        -0.68553
C         19.74097        10.00321        -1.66310
C         19.74225        12.82342        -0.58468
C         18.58594        14.84690         0.28193
C         18.57124        16.23058         0.65136
C         19.76105        14.16165        -0.04011
C         19.78494        16.96627         0.74759
C         18.48317        19.04581         0.83442
C         19.74236        18.42462         0.75356
C         20.68312         1.98895         1.64141
C         20.72864         4.21932         0.95410
C         21.91318         1.31114         1.66949
C         22.04287         4.79051         0.70563
C         20.99101         6.46086        -0.73405
C         20.95531         7.82762        -1.20771
C         22.14463         5.90465        -0.19077
C         22.27710         8.53415        -1.22666
C         21.02680        10.78994        -1.52636
C         21.03621        12.29739        -1.18906
C         22.32997        10.03959        -1.37619
C         22.18029        12.68660        -0.23605
C         21.00563        14.85388         0.15477
C         21.00164        16.21124         0.60416
C         22.22915        14.18209        -0.03720
C         22.25877        16.78121         0.88450
C         20.87883        19.27430         0.46159
C         22.20085        18.91525         0.74594
C         23.14236         2.00943         1.84742
C         23.18279         4.22118         1.27140
C         24.41215         1.56421         1.55279
C         24.52779         4.58282         0.91231
C         23.50790         6.39192        -0.58978
C         23.52447         7.88800        -0.73499
C         24.66370         5.83938         0.21136
C         24.72395         8.55061        -0.70398
C         23.55430        10.72447        -0.89858
C         23.51359        12.08831        -0.59214
C         24.77799         9.99935        -0.76782
C         24.71509        12.80993        -0.40941
C         23.44471        14.88928         0.01195
C         23.46818        16.27071         0.38748
C         24.69593        14.22329        -0.18634
C         24.65701        17.08197         0.26909
C         23.44238        19.33433         0.22305
C         24.62874        18.52775         0.24187
C         25.61762         2.38902         1.61863
C         25.65805         3.81829         1.26940
C         26.78861         1.71714         1.88205
C         26.96938         4.42953         1.09479
C         25.89058         6.45851         0.10808
C         26.01821         7.75233        -0.67157
C         27.06486         5.78989         0.58082
C         27.23320         8.54190        -0.23601
C         25.97961        10.69193        -0.49895
C         25.96425        12.11794        -0.40085
C         27.23748         9.99032        -0.28722
C         27.15240        12.85915        -0.20984
C         25.88615        14.96880        -0.14714
C         25.87849        16.40425        -0.03128
C         27.13387        14.27277        -0.22968
C         27.09919        17.11328        -0.21443
C         25.87621        19.19911         0.05491
C         27.08064        18.53143        -0.11020
C         28.10412         2.40062         2.08092
C         28.12633         3.76020         1.44278
C         29.29383         1.55434         1.65501
C         29.49584         4.37042         1.31958
C         28.30896         6.44149         0.48399
C         28.35023         7.85354         0.18572
C         29.53256         5.76363         0.75876
C         29.63005         8.53856         0.46684
C         28.40019        10.70025        -0.03639
C         28.41626        12.17614         0.19637
C         29.67061        10.03050         0.29916
C         29.63604        12.80798        -0.39585
C         28.34123        14.99217        -0.42977
C         28.33594        16.40557        -0.50546
C         29.54237        14.21160        -0.77813
C         29.54103        17.11766        -0.76477
C         28.38925        19.28743        -0.08986
C         29.46092        18.61597        -0.96922
C         30.38389         2.04826         1.05263
C         30.44110         3.46321         0.52205
C         31.81877         4.10467         0.51556
C         30.78760         6.33718         0.53689
C         30.88921         7.77099         0.34250
C         31.95080         5.45068         0.53280
C         32.06020         8.47972         0.15234
C         30.96386        10.69040         0.01145
C         30.97357        12.21767        -0.01363
C         32.09007         9.90885         0.00342
C         32.12736        12.88719        -0.72280
C         30.82300        14.97109        -1.10864
C         30.79401        16.44926        -0.91524
C         32.08599        14.17700        -1.09232
C         31.97937        17.18547        -0.92779
C         30.79153        19.30294        -0.82711
C         31.96251        18.61082        -0.83850
O          8.49732        10.32608         1.03792
O         18.06488         5.37529        -2.60213
O         11.85068         3.66552        -1.98926
O         11.19326        10.32109         1.04561
O         22.56761         9.17743        -2.52362
O         22.31003        17.89342         1.71991
O          2.82733        14.08950         2.13323
O          6.78385        11.04171        -2.01463
O         29.96017        14.53534        -2.18898
O          9.21771        16.65956        -0.60909
O         15.80745        13.91701         1.95455
O          3.93343        10.90655        -1.98705
O         17.23823         9.40475        -2.76836
O         23.02900         3.33138         2.32919
O         29.59318         9.41741         1.66238
O          8.82005         3.44925        -1.80691
O         18.14625         3.12960        -1.32750
O         14.81544         9.48272        -2.68888
O         10.17691         8.10569        -2.86604
O         20.42577        10.55554        -2.84167
O         20.63382         3.34319         2.03604
O         15.84487         6.22258        -3.14074
O          6.71935        14.36313        -0.83265
O         12.53337        12.80278         1.98158
O          3.39740         7.04139        -2.60072
O         23.73413         5.84727        -1.94631
H         22.88702         5.91612        -2.44145
O         31.15122        12.61335         1.39834
H         30.27035        12.48151         1.84159
O          9.85774        12.20987         2.35133
H         10.11387        11.26863         2.50100
O         10.44371         2.87823         1.92657
H          9.79869         2.92861         2.66151
O          6.03563         4.76660         1.68025
H          5.23182         4.47400         2.16027
O         20.40549         4.70934        -2.11774
H         19.62447         4.29064        -2.55843
O         16.94783        14.75305        -1.42425
H         17.70028        14.55328        -2.02169
O          7.23430         8.77493        -3.14074
H          6.89518         9.68745        -3.32492
O         29.00764        18.83534        -2.34692
H         29.60092        18.32723        -2.93950
O          8.27393         6.20549        -3.14695
H          7.85188         7.02480        -3.49873
O         28.48391        12.31742         1.71741
H         28.37611        11.41509         2.09601
O         28.84617        19.36869         1.26914
H         28.85521        18.46476         1.64590
O         30.06329         4.44971         2.67515
H         29.77366         5.29886         3.07111
O         21.81653        12.07676         1.04588
H         22.43689        12.41093         1.72756
O         10.39791         1.21716        -1.30778
H         10.73435         1.55429        -2.16596
O         28.27024         2.59212         3.52979
H         29.08030         3.15256         3.62631
O          7.57518        16.42862         2.63673
H          6.82997        16.84233         3.12260
O          7.09309        12.41456         2.18533
H          7.99651        12.30991         2.58115
O         12.41820         9.06514        -3.27987
H         11.50116         9.05198        -3.64327
O          3.39546        11.22538         1.67621
H          3.32512        11.96245         2.32603
O         29.96835         3.42929        -0.84892
H         30.58331         2.87574        -1.37269
O         12.13711         6.12601         0.76406
H         12.11449         7.10096         0.86652
O          2.43884         3.58794        -2.24188
H          2.60172         2.62301        -2.18360
O         21.25372        13.00313        -2.42813
H         20.85267        12.45453        -3.14202
O         26.25536         7.36697        -2.06231
H         25.48287         6.81517        -2.33763
H          0.31503         1.80017         0.82161
H          0.13169         3.79844        -0.57878
H          2.53927         0.82043         1.39760
H          0.11882         5.78679        -0.75173
H          0.07376         8.21246        -0.68139
H          0.01789        10.21269        -0.64317
H          0.10677        12.61508        -0.15853
H          0.14167        14.55985         0.24585
H          0.31261        16.93422         0.81655
H          1.59809        18.91747         1.36997
H          4.99637         0.84790         1.26750
H          3.77241        20.09442         1.51760
H          7.44939         1.09063         1.63001
H          6.21370        20.05949         1.26005
H          9.82900         0.97038         1.28705
H          8.66422        20.02222         1.30094
H         12.25568         0.46335         0.46243
H         11.12597        19.94750         1.58901
H         14.62841         0.60560         1.01232
H         13.53246        19.97175         1.45181
H         17.00152         0.64283         1.30471
H         15.99161        20.05792         1.23295
H         19.31630         0.36273         1.25930
H         18.43388        20.14505         0.82408
H         21.94099         0.26079         1.34832
H         20.67360        20.22742        -0.04966
H         24.55441         0.49794         1.32171
H         23.51385        20.32171        -0.25909
H         26.74442         0.63496         2.08116
H         25.88014        20.29960         0.07892
H         29.27748         0.50019         1.97566
H         28.23895        20.33551        -0.44750
H         31.23820         1.38527         0.83426
H         32.70484         3.46194         0.39417
H         32.95278         5.90041         0.46654
H         33.01963         7.94611         0.09291
H         33.07545        10.37362        -0.14920
H         33.08081        12.34196        -0.79523
H         32.98777        14.64774        -1.51489
H         32.94722        16.67177        -1.00232
H         30.79665        20.40190        -0.78266
H         32.92257        19.14456        -0.78715
