         576
 CSIRO Nanostructure Databank - Neutral Graphene Oxide Data Set
C          6.02580        18.95544         0.39663
C          5.97069        20.32229         0.38966
C          4.87148        21.00497         1.03993
C          6.18962        23.06574         1.20768
C          4.96485        22.30742         1.41709
C          6.29151        24.39382         1.67461
C          8.62739        14.82140         0.40696
C          8.52323        16.14472         0.03840
C          7.31544        16.87920         0.30084
C          8.31851        18.90502        -0.65858
C          7.17965        18.20485        -0.02723
C          8.29798        20.42436        -0.69779
C          7.01496        21.19156        -0.28152
C          8.43001        23.26576         0.19753
C          7.25605        22.45535         0.52090
C          8.60958        24.56548         0.85969
C          7.49312        25.15991         1.54969
C          8.95576        27.06798         2.27073
C          7.59956        26.44821         2.09430
C          9.01911        28.54614         2.55668
C         11.22887        10.69220         0.88504
C         10.61338        11.68867         0.17028
C          9.75838        12.72998         0.63013
C         10.86625        14.63481        -0.67091
C          9.76026        14.01490         0.07519
C         10.86383        16.02334        -0.83257
C          9.68169        16.81108        -0.53361
C         10.79520        18.96810        -1.13511
C          9.60188        18.17702        -0.77258
C         10.79546        20.40158        -0.73072
C          9.62769        21.10795        -0.62467
C         10.93164        23.30679        -0.44352
C          9.62122        22.58649        -0.46052
C         10.98679        24.65560         0.14488
C          9.85655        25.24997         0.76011
C         11.10413        27.35301         1.03112
C          9.95171        26.58881         1.25350
C         11.05173        28.87279         1.14008
C         10.04524        29.37122         2.20415
C         10.78883        31.78640         2.31778
C         10.08593        30.72019         2.80477
C         11.11380        33.11528         2.83839
C         13.76655         6.54950         1.52363
C         13.64708         7.82555         0.86063
C         12.52683         8.69356         1.08211
C         13.21470        10.24186        -0.76054
C         12.29230         9.85671         0.36804
C         13.28403        11.63382        -1.51324
C         12.08259        12.50693        -1.25324
C         13.28726        14.58115        -1.51821
C         12.04618        13.86669        -1.10676
C         13.34848        16.03883        -1.37438
C         12.00381        16.70148        -1.60205
C         13.39010        18.86215        -1.15694
C         12.07164        18.22661        -1.42368
C         13.41197        20.28172        -0.74061
C         12.12661        21.02704        -0.52068
C         13.49983        23.13710        -0.02847
C         12.20017        22.52016        -0.53429
C         13.44684        24.64661        -0.18233
C         12.24774        25.31359         0.19852
C         13.61039        27.20586         1.08383
C         12.27546        26.66825         0.65687
C         13.58468        28.69047         1.27289
C         12.45316        29.44638         1.25074
C         13.67492        31.53783         1.83945
C         12.57855        30.88287         1.36180
C         13.64901        32.78783         2.70610
C         12.38386        33.66040         2.73208
C         13.72748        35.75119         2.84542
C         12.55847        35.06583         3.05136
C         13.82234        37.18931         3.03737
C         15.94129         6.13009         0.48415
C         14.86019         5.74097         1.34044
C         15.78780         7.37551        -0.26879
C         14.66197         8.24816         0.01374
C         15.80444        10.20165        -1.08833
C         14.53522         9.47830        -0.78965
C         15.77565        11.64524        -1.16748
C         14.59911        12.35044        -1.27385
C         15.82458        14.59748        -1.36413
C         14.60233        13.80647        -1.56407
C         15.81157        15.96721        -1.32793
C         14.55497        16.70894        -1.38399
C         15.85660        18.88038        -1.29447
C         14.57394        18.16876        -1.24128
C         15.85824        20.33503        -1.31770
C         14.66900        21.06001        -0.94521
C         15.86170        23.21205        -1.05953
C         14.67912        22.42715        -0.67489
C         15.92914        24.68556        -0.75207
C         14.67180        25.42164        -0.41365
C         16.05689        27.37875         0.52601
C         14.70121        26.87967         0.04666
C         16.11658        28.67707         0.97273
C         14.89506        29.33469         1.48378
C         16.14954        31.56008         1.53963
C         14.94118        30.77068         1.88744
C         16.11180        32.91760         1.72935
C         15.04501        33.56867         2.62039
C         16.23777        35.70918         2.52207
C         14.90137        35.04702         2.20394
C         16.29278        37.20320         2.86314
C         14.98647        37.88732         2.96536
C         18.31738         5.99536        -0.14792
C         17.13324         5.41630         0.38314
C         18.32796         7.35544        -0.63072
C         17.05631         8.04303        -0.88384
C         18.29304        10.17911        -1.06200
C         17.03453         9.51242        -1.03069
C         18.31970        11.66865        -0.81759
C         17.08302        12.37953        -1.39356
C         18.30287        14.54694        -1.53050
C         17.08044        13.86358        -0.96359
C         18.35007        15.94758        -1.55470
C         17.11378        16.70402        -1.04946
C         18.28267        18.85144        -1.92814
C         17.03716        18.16202        -1.43460
C         18.31551        20.30310        -1.49586
C         17.13207        21.00973        -1.37088
C         18.44969        23.30132        -1.51674
C         17.13846        22.50005        -1.41944
C         18.49891        24.58457        -0.66764
C         17.23147        25.20356        -0.20821
C         18.60233        27.24111         0.65781
C         17.27836        26.54531         0.45689
C         18.60271        28.73762         0.70608
C         17.32205        29.46877         0.88618
C         18.44157        31.61991         0.46884
C         17.29301        30.84654         1.00031
C         18.46176        33.10307         0.67629
C         17.25553        33.76524         1.28948
C         18.62540        35.77628         1.86693
C         17.42698        35.10896         1.89867
C         18.71011        37.18959         2.23469
C         17.54274        37.88956         2.57822
C         20.77608         5.98455        -0.09574
C         19.55752         5.33754         0.08193
C         20.82566         7.30622        -0.82903
C         19.52150         8.06080        -0.79251
C         20.76843        10.20655        -1.07625
C         19.51179         9.47627        -1.01354
C         20.73649        11.62339        -1.40758
C         19.56706        12.33455        -1.36839
C         20.73362        14.43017        -2.38843
C         19.48147        13.72563        -1.89029
C         20.66916        15.95649        -2.65590
C         19.53782        16.63474        -1.87622
C         20.80301        18.84568        -2.04320
C         19.58773        18.09137        -1.52174
C         20.83474        20.27718        -1.65613
C         19.60660        20.94920        -1.05312
C         20.86589        23.08201        -1.18637
C         19.67406        22.44688        -1.27669
C         20.93672        24.49007        -0.75157
C         19.68647        25.19185        -0.41631
C         21.02285        27.35417        -0.22631
C         19.90646        26.47190         0.37564
C         20.97382        28.79559        -0.06171
C         19.83182        29.45932         0.31828
C         20.96800        31.72362        -0.00864
C         19.72791        30.92727         0.15088
C         20.93761        33.14579         0.26344
C         19.78069        33.76719         0.73884
C         21.13491        35.85467         1.27451
C         19.85651        35.07824         1.41163
C         21.13059        37.31186         1.57537
C         19.94072        37.89125         2.09237
C         23.15753         6.15741         0.44186
C         21.97925         5.40725         0.36833
C         23.15076         7.55170         0.02809
C         22.02528         8.15226        -0.48172
C         23.20356        10.34126        -0.68878
C         21.99158         9.56811        -0.81625
C         23.22212        11.74237        -1.06001
C         22.02632        12.28897        -1.73205
C         23.28595        14.52570        -1.88063
C         22.06429        13.73808        -2.17916
C         23.39746        15.88383        -2.53770
C         22.06595        16.67090        -2.58857
C         23.39707        18.86483        -2.08905
C         22.10503        18.14778        -2.33441
C         23.40443        20.21041        -1.80014
C         22.16297        20.90374        -1.40521
C         23.33353        23.13299        -1.74070
C         22.17139        22.37243        -1.18215
C         23.23473        24.64007        -1.81503
C         22.18347        25.28010        -0.96052
C         23.30845        27.48502        -1.22385
C         22.14056        26.75612        -0.81120
C         23.21550        28.96382        -1.20229
C         22.26540        29.58137        -0.20565
C         23.30405        31.84662        -0.74679
C         22.12606        31.08155        -0.39222
C         23.26178        33.27894        -0.56301
C         22.16161        33.89563         0.04285
C         23.28626        36.08559         0.11967
C         22.20377        35.30378         0.40651
C         23.41274        37.53439         0.52133
C         22.29266        38.03851         1.38403
C         25.41505         6.41172         1.41786
C         24.33031         5.62018         1.04883
C         25.43503         7.82185         1.10274
C         24.47241         8.26691         0.02434
C         25.44048        10.55194         0.26393
C         24.34865         9.75227        -0.12107
C         25.62780        11.85792        -0.46656
C         24.35470        12.52446        -0.92049
C         25.67227        14.66897        -1.19834
C         24.40810        13.91704        -1.34495
C         25.79262        15.99535        -1.63779
C         24.61357        16.70612        -2.07861
C         25.90967        18.85577        -2.22455
C         24.62724        18.09601        -2.19375
C         25.82755        20.36959        -2.36272
C         24.69068        20.98992        -1.55948
C         25.77734        23.17179        -2.58668
C         24.59322        22.45720        -1.93496
C         25.75172        24.71061        -2.39454
C         24.46561        25.43976        -2.08423
C         25.69017        27.58047        -1.95200
C         24.47876        26.86249        -1.67661
C         25.63878        29.05238        -2.04213
C         24.38779        29.77869        -1.63631
C         25.71554        31.89569        -1.30598
C         24.45758        31.20611        -1.23715
C         25.71750        33.40750        -1.42114
C         24.41699        34.09018        -1.00210
C         25.76471        36.20366        -0.22253
C         24.44758        35.54897        -0.62032
C         25.80879        37.70288        -0.18968
C         24.87549        37.71269         0.99160
C         27.59062         6.56771         2.53791
C         26.54239         5.82079         2.10582
C         27.49066         8.09836         2.53479
C         26.39996         8.67285         1.61056
C         27.18345        11.10824         1.82550
C         26.37943        10.08687         1.22281
C         27.36733        12.39564         1.28940
C         26.56976        12.82435         0.17958
C         27.98209        14.80204        -0.11889
C         26.72126        14.07570        -0.39811
C         28.23976        16.12784        -0.77721
C         27.19516        16.63269        -1.77241
C         28.28536        19.01214        -1.29127
C         27.19703        18.17062        -1.87867
C         28.24630        20.44597        -1.49338
C         27.10757        21.11278        -2.01814
C         28.20161        23.30764        -1.80165
C         27.06258        22.52031        -2.10492
C         28.18531        24.76104        -1.89368
C         26.99283        25.46216        -2.11374
C         28.18689        27.63725        -2.03410
C         26.93203        26.89973        -2.07022
C         28.20558        29.05398        -1.88241
C         26.95042        29.81842        -1.94065
C         28.20344        31.87638        -1.05640
C         26.90875        31.22462        -1.49234
C         28.17309        33.39013        -1.12928
C         26.98853        34.07709        -0.91255
C         28.15515        36.26063        -0.90844
C         27.01588        35.51502        -0.67417
C         28.18390        37.71726        -0.73201
C         26.95492        38.40462        -0.35890
C         29.97805         6.08535         2.53060
C         28.78015         5.91707         3.15458
C         29.96660         8.11500         1.74723
C         28.83059         8.77257         2.23758
C         30.17741        10.84157         2.25886
C         29.00291        10.11773         2.57369
C         30.21549        12.28204         2.37331
C         28.38879        13.29589         1.77445
C         30.04041        15.11151         1.24503
C         28.78027        14.41858         1.06284
C         30.12744        16.49038         0.77332
C         29.22249        17.03575        -0.12381
C         30.40926        19.24783        -0.02481
C         29.28503        18.43923        -0.49916
C         30.48008        20.64105        -0.43011
C         29.37574        21.24143        -1.09484
C         30.55723        23.42146        -1.06334
C         29.37653        22.65337        -1.33894
C         30.60927        24.81946        -1.38897
C         29.41675        25.49991        -1.77006
C         30.68817        27.61925        -2.16970
C         29.40711        26.90470        -1.99186
C         30.70641        29.12681        -2.05755
C         29.41727        29.79977        -1.77604
C         30.66275        31.93715        -1.75807
C         29.43602        31.18197        -1.59272
C         30.45098        33.36891        -1.90157
C         29.38058        34.09898        -1.42939
C         30.69177        36.28838        -1.05067
C         29.37602        35.62390        -1.57024
C         30.66703        37.72381        -0.65553
C         29.36463        38.41732        -0.69652
C         32.42781         6.58465         2.51665
C         31.36031         5.80799         2.88836
C         32.46672         7.94383         1.97864
C         31.24303         8.71298         1.76027
C         32.54489        10.77935         1.26375
C         31.30506        10.11906         1.81508
C         32.47940        12.28173         1.47936
C         31.28775        13.01913         1.91376
C         32.48164        15.17493         1.53842
C         31.22055        14.45122         1.66188
C         32.51991        16.52703         1.38734
C         31.23047        17.32481         1.38243
C         32.54639        19.53871         1.32739
C         31.39711        18.69986         0.77825
C         32.74317        20.84339         0.58971
C         31.62597        21.42935        -0.10022
C         32.80741        23.66301         0.01397
C         31.67531        22.79757        -0.47706
C         33.00247        24.93173        -0.78082
C         31.87550        25.50867        -1.34457
C         33.26688        27.59501        -1.87039
C         31.96447        26.84493        -1.97370
C         33.25681        29.10899        -1.90225
C         31.95559        29.82917        -1.52704
C         33.21489        32.09304        -1.52121
C         31.93115        31.34018        -1.78725
C         33.13210        33.42577        -0.84587
C         32.22638        34.33561        -1.28659
C         32.91337        36.08438         0.27642
C         31.72739        35.41284        -0.37464
C         32.77242        37.47423         0.66340
C         31.71837        38.22907         0.26284
C         33.65893         8.65247         2.07566
C         35.06578        10.62744         1.96284
C         33.80965        10.06132         1.78963
C         35.42860        11.96897         1.55502
C         33.55596        13.02400         1.15571
C         35.06289        14.98322         1.29550
C         33.74770        14.37737         1.75858
C         35.07787        16.48396         1.17217
C         33.81595        17.23015         1.48860
C         35.14961        19.36715         1.20323
C         33.85293        18.72588         1.46199
C         35.15758        20.86386         1.34625
C         33.95462        21.54268         0.70559
C         35.29636        23.59763         0.26420
C         34.06580        22.88759         0.26910
C         35.43462        24.89398        -0.22620
C         34.29790        25.59653        -0.79068
C         35.74279        27.59110        -1.31885
C         34.42992        26.89747        -1.28469
C         35.84348        29.13760        -1.32194
C         34.52327        29.84481        -1.60399
C         35.40830        31.81638        -0.18495
C         34.47155        31.31411        -1.23674
C         35.24971        33.15647         0.34560
C         34.13512        33.92086         0.09037
C         34.00632        35.30132         0.55473
C         36.33689        12.86761         2.05586
C         37.48447        15.02686         1.75308
C         36.33564        14.27996         1.66152
C         37.53771        16.46134         1.55036
C         36.34925        17.20358         1.32045
C         37.63793        19.30219         1.26084
C         36.36083        18.63520         1.25081
C         37.70931        20.72950         1.18127
C         36.44213        21.43833         0.76238
C         37.74111        23.65296         1.17332
C         36.45583        22.93411         0.92209
C         37.89838        24.96190         0.53776
C         36.85388        25.38003        -0.47304
C         38.06034        27.65435        -0.20246
C         36.94509        26.86325        -0.81503
C         37.84503        28.96322         0.13878
C         36.44983        29.53603         0.03257
C         36.37623        31.00486         0.32830
C         38.76283        17.13861         1.67005
C         40.08339        19.21021         1.53504
C         38.85050        18.55164         1.49222
C         40.20561        20.64065         1.11103
C         38.91210        21.40165         1.26181
C         40.28530        23.53091         1.30766
C         38.97026        22.86787         1.63953
C         40.34599        24.83841         0.93267
C         39.16447        25.58555         0.51586
C         39.25660        26.94065         0.14118
C         41.40684        21.38085         1.64012
C         41.46052        22.72882         1.62497
O         36.74034        27.03973        -2.26030
O         19.87490        13.74173        -3.33225
O         17.15760        25.30832         1.26247
O         28.86828        14.91732        -1.29646
O          8.04669        19.65781        -1.90451
O         15.25506        25.41812        -1.81234
O         21.98501        24.57801         0.30164
O         26.25836        29.60649        -3.23232
O         22.12965        17.61205        -3.70282
O         25.45705        36.36582         1.30699
O         34.99502        15.60973        -0.01383
O         13.86142        14.12084        -2.78720
O         20.58630        19.89842        -3.04427
O         24.11553        35.17202        -1.98063
O         16.21908        22.95223        -2.47116
O         11.40686        31.60285         1.05778
O         29.10867        12.95325         2.94117
O         12.83323        20.43808         0.64288
O         17.47504        33.79802        -0.17097
O         36.68253        23.53721         2.23138
O         27.86350        10.81725         3.03225
O         24.95554        25.32708        -3.45878
O         20.90431        35.04597         2.47517
O         33.91208        17.97361         2.75817
O         31.23324        37.26398        -1.97438
O         18.74174        27.90344         1.95570
O         22.34464        21.48186        -0.02423
O         30.75410        28.48799        -3.35271
O         22.27173        12.64074        -3.13011
O         26.86877        18.46879        -3.28410
O         15.10275        29.73736         2.91137
O         16.43165        36.12862         3.88067
O         18.74716        31.24948        -0.92498
O         13.45283         9.23176        -1.77480
O         31.51923        34.08668        -2.46603
O         11.66798        23.14129        -1.72630
O         34.63376        12.44257         0.48108
O         29.87706         6.79877         1.30376
O         13.55802        32.24163         4.00202
O         23.22957        29.53965        -2.53519
O          8.65187        23.27617        -1.30606
O         34.04968        29.65200        -2.97879
O         32.85094        26.94167        -3.12737
O         22.78017        23.89359        -2.96282
O         11.32173        18.87376        -2.52266
O         34.34443        32.10497        -2.46071
O         10.90585        11.76070        -1.20966
O         16.12292         7.29670        -1.69575
O         22.95421        29.42343         1.08107
H         22.32938        29.66303         1.79797
O         28.27493        31.58107         0.40318
H         27.61785        32.15461         0.85448
O         19.72154        18.14490        -0.07133
H         18.92913        17.70861         0.32770
O         25.46125        20.56137        -3.73877
H         26.14446        20.12561        -4.29238
O         17.10497        13.97419         0.50113
H         17.21206        14.94029         0.71175
O         21.01780         6.95665        -2.24978
H         20.23212         6.44350        -2.53624
O         27.12989         8.41051         3.90518
H         27.11949         9.39398         3.98723
O         18.57988        23.75603        -2.88757
H         17.67297        23.75940        -3.28054
O         17.27383        12.35996        -2.82714
H         16.42998        12.59912        -3.26642
O         23.33346        38.33718        -0.70215
H         22.47852        38.14392        -1.14154
O         11.72604        16.42448        -2.99864
H         11.33629        17.24514        -3.38545
O         31.89513        29.67780        -0.06909
H         31.06994        30.10775         0.24653
O         14.35434        27.69586        -1.09742
H         14.73640        27.26427        -1.89663
O         20.41146        26.03930         1.65994
H         20.07151        26.67554         2.33186
O         35.11521        21.13148         2.76908
H         34.27324        20.75406         3.11369
O         25.12419         7.84024        -1.23577
H         25.12884         6.85883        -1.24414
O         23.72152        15.57577        -3.92088
H         23.38873        16.32793        -4.46480
O         40.43767        20.57747        -0.36429
H         39.75470        19.98029        -0.73978
O         25.84022        33.57130        -2.86466
H         25.35708        34.39562        -3.11046
O         36.76786        29.56242        -2.32456
H         36.32697        29.46384        -3.19602
O         36.34362        21.19486        -0.67128
H         37.02245        21.73195        -1.13270
O         10.50666        29.29928        -0.13867
H         10.56137        30.28424        -0.14588
O         32.52239        10.52506        -0.16924
H         33.27967        11.01942        -0.55499
O         18.37933        11.72759         0.63391
H         18.07071        12.62168         0.92594
O         25.71613        22.98350        -4.01938
H         25.01766        23.59051        -4.35839
O         32.37285        24.13140         1.35961
H         32.32460        23.33933         1.93822
O         15.62390        33.54692         3.92748
H         15.01760        32.95917         4.46784
O         13.92602        26.55177         2.33440
H         14.46761        27.16274         2.87876
O         13.57860        22.90553         1.40979
H         13.47479        21.93181         1.55074
O         30.88357        17.53247         2.80837
H         30.00608        17.97080         2.83177
O         37.26099        24.62673        -1.67071
H         37.10608        25.23678        -2.43566
O         38.95646        22.84001         3.09862
H         38.00495        22.86580         3.36562
O         14.69731        35.06526         0.77273
H         14.41850        35.96386         0.50108
O         33.85883        14.17304         3.20333
H         33.61271        15.01151         3.64956
O         29.26574        35.92779        -2.97454
H         29.93679        36.62388        -3.17525
O         32.19100        19.94007         2.69107
H         32.04365        19.09327         3.18404
O         13.27685        11.35187        -2.93221
H         12.46995        10.83198        -3.13242
O         25.02348        20.87047        -0.14524
H         24.21668        21.14551         0.35609
O          9.45341        26.42725         3.52962
H          8.92758        26.80228         4.26860
O         27.64050        16.12502        -3.04922
H         27.17949        16.64570        -3.74600
O         18.18825        18.79815        -3.37703
H         18.97815        19.25676        -3.75091
O         19.64637        20.80328         0.39653
H         20.53749        21.10774         0.69463
O         17.27570        16.72025         0.44154
H         16.54243        17.26142         0.80947
O         30.99251        34.73921         0.70576
H         31.64343        34.28175         1.27962
O         26.32561        11.45352        -1.70252
H         25.74199        10.82797        -2.18444
O         35.61968        28.86203         1.03761
H         35.95071        29.11261         1.92572
O         20.24837        16.12091        -4.02783
H         19.72568        15.31767        -4.26805
O          6.40014        21.66080        -1.51405
H          7.05994        22.24935        -1.95213
H          5.20814        18.39232         0.87390
H          3.97375        20.41942         1.28943
H          4.12851        22.80063         1.93282
H          5.42881        24.84403         2.18736
H          7.77964        14.33731         0.91411
H          6.48776        16.35430         0.80107
H          6.74911        26.86388         2.65679
H          8.26242        28.92233         3.26665
H         10.91581        10.51873         1.92520
H          9.04953        12.51901         1.44594
H          9.54441        30.83503         3.75621
H         10.29423        33.75665         3.20887
H         12.95450         6.23077         2.19268
H         11.81779         8.42077         1.87806
H         11.67908        35.61742         3.42593
H         12.88264        37.73497         3.21773
H         14.93175         4.78115         1.87231
H         14.97773        38.98395         3.05542
H         17.21815         4.44360         0.89082
H         17.56946        38.98919         2.62205
H         19.54363         4.34119         0.54989
H         19.95678        38.96190         2.34796
H         21.95841         4.38947         0.78708
H         22.30113        39.11117         1.63450
H         24.33006         4.55611         1.32957
H         25.04014        38.45450         1.80487
H         26.56645         4.72462         2.20077
H         27.02160        39.45603        -0.03984
H         28.66891         5.32683         4.07668
H         29.34429        39.50349        -0.51915
H         33.41875         6.20671         2.82150
H         31.56849         4.90656         3.48641
H         33.55008        37.91509         1.30564
H         31.63334        39.27172         0.60498
H         34.56020         8.11442         2.41292
H         35.84786        10.00018         2.42398
H         36.03769        33.54014         1.01108
H         34.86408        35.73770         1.08986
H         37.07640        12.54336         2.80346
H         38.42579        14.52677         2.02746
H         38.64125        29.54894         0.62367
H         37.03421        31.39489         1.12232
H         39.68184        16.56731         1.86712
H         41.00330        18.62323         1.67977
H         41.32443        25.32719         0.80756
H         40.19198        27.49211         0.31715
H         42.30192        20.79174         1.89059
H         42.39882        23.25169         1.86803
