         344
 CSIRO Nanostructure Databank - Neutral Graphene Oxide Data Set
C          1.29827         2.11349        -0.61871
C          1.26707         3.53638        -0.65804
C          2.46892         1.40543        -0.76140
C          2.40567         4.28120        -0.92259
C          1.20761         6.47834        -0.87563
C          1.15222         7.83336        -0.77095
C          2.44169         5.73206        -0.95451
C          2.35372         8.66397        -0.89061
C          1.14742        10.81273        -0.38181
C          1.11033        12.12966        -0.01970
C          2.36995        10.07453        -0.44835
C          2.34183        12.84116         0.31512
C          1.13315        15.20936         0.34029
C          1.18479        16.57991         0.17384
C          2.33808        14.38819         0.46531
C          2.40181        17.27685        -0.02809
C          2.49198        18.68153        -0.13659
C          3.71157         2.08594        -0.96638
C          3.66136         3.54864        -1.17748
C          4.92894         1.42874        -0.95048
C          4.97669         4.31817        -1.06397
C          3.66679         6.42366        -0.87050
C          3.69263         7.89694        -0.89766
C          4.92168         5.74985        -0.72893
C          4.88654         8.59520        -0.40131
C          3.60145        10.72086        -0.20106
C          3.62242        12.12940         0.07812
C          4.85383         9.99327        -0.17846
C          4.84399        12.81147         0.13624
C          3.67821        15.12781         0.37187
C          3.59275        16.44270        -0.42138
C          4.86187        14.28590        -0.19224
C          4.91780        17.16763        -0.34439
C          3.69786        19.31179        -0.40095
C          4.93969        18.58416        -0.47168
C          6.18546         2.12308        -0.86809
C          6.20359         3.56662        -0.77554
C          7.38478         1.42412        -0.77020
C          7.35777         4.25755        -0.41703
C          6.09447         6.42176        -0.35699
C          6.07001         7.85585        -0.14684
C          7.34038         5.68958        -0.20446
C          7.24554         8.53743         0.25174
C          6.07197        10.68072         0.11527
C          6.08149        12.10796         0.14775
C          7.28831         9.94945         0.29742
C          7.34115        12.80267         0.14762
C          6.13224        15.01389         0.26335
C          6.12438        16.44835        -0.23774
C          7.38659        14.22235        -0.02840
C          7.34614        17.11574        -0.38536
C          6.17984        19.25256        -0.56352
C          7.38817        18.52802        -0.56043
C          8.62203         2.10586        -0.52863
C          8.58838         3.53648        -0.19641
C          9.83855         1.48061        -0.67213
C          9.71681         4.17758         0.28258
C          8.50809         6.33411         0.20217
C          8.44714         7.75891         0.57843
C          9.74870         5.61285         0.43682
C          9.73719         8.50055         0.82413
C          8.54513        10.65441         0.44727
C          8.55703        12.07882         0.26625
C          9.76044         9.96687         0.65606
C          9.80412        12.77631         0.25944
C          8.59307        14.88565        -0.19104
C          8.61494        16.33325        -0.64344
C          9.83055        14.17860        -0.01615
C          9.82623        17.05789        -0.03635
C          8.66673        19.19124        -0.65724
C          9.86250        18.52357        -0.43380
C         11.09247         2.29794        -0.52453
C         10.90848         3.30697         0.63475
C         12.34283         1.47163        -0.41204
C         12.20913         4.07869         0.92614
C         10.93749         6.28549         0.71255
C         11.03301         7.77733         0.51008
C         12.16980         5.58480         1.23897
C         12.18787         8.45022         1.26371
C         11.01778        10.64406         0.72922
C         11.02149        12.08118         0.53768
C         12.24171         9.94360         0.93835
C         12.20893        12.81743         0.70123
C         11.06754        14.87912         0.05104
C         11.13171        16.32892        -0.37554
C         12.21872        14.21303         0.48538
C         12.33686        17.08634         0.12459
C         11.11103        19.19127        -0.40892
C         12.31589        18.53893        -0.08281
C         13.50556         2.05459        -0.01598
C         13.50016         3.42473         0.56998
C         14.78176         1.38935        -0.09658
C         14.74922         4.21677         0.48743
C         13.47142         6.33513         0.89930
C         13.47805         7.70451         1.00646
C         14.72189         5.60930         0.70198
C         14.75205         8.46552         1.27446
C         13.48173        10.63256         0.98186
C         13.46091        12.13936         1.20164
C         14.71748         9.94678         0.95683
C         14.71207        12.85198         0.75667
C         13.44477        14.98011         0.91957
C         13.45477        16.44084         0.53612
C         14.72020        14.22290         0.58115
C         14.74357        17.17424         0.81502
C         13.52005        19.25978         0.03494
C         14.73740        18.61807         0.34542
C         15.95768         2.08201         0.04310
C         15.95992         3.51318         0.26678
C         17.24943         1.31551        -0.15089
C         17.20074         4.22191         0.33400
C         15.96718         6.33691         0.68177
C         15.99063         7.75166         0.82270
C         17.18873         5.61783         0.54080
C         17.20334         8.48885         0.59506
C         15.95900        10.62700         0.77465
C         16.01385        12.12902         0.98674
C         17.16799         9.94597         0.55474
C         17.14094        12.77607         0.18353
C         15.93716        14.95351         0.36830
C         15.88669        16.43193         0.08423
C         17.17534        14.28080         0.33981
C         17.20171        17.14208         0.27977
C         15.95508        19.27759         0.24191
C         17.20662        18.56812         0.31095
C         18.49479         2.08422         0.21539
C         18.43711         3.47739         0.33926
C         19.71850         1.38316         0.28721
C         19.67507         4.22463         0.61299
C         18.47773         6.36075         0.81154
C         18.40691         7.81057         0.44260
C         19.67106         5.66174         0.15277
C         19.66415         8.49338        -0.02005
C         18.43293        10.65571         0.40496
C         18.45627        12.08150         0.41829
C         19.66246         9.96632         0.29228
C         19.66417        12.78728         0.41627
C         18.38936        14.97991         0.34764
C         18.40886        16.41798         0.31622
C         19.66853        14.27113         0.70787
C         19.65570        17.12053         0.26900
C         18.43200        19.25442         0.32574
C         19.66179        18.55184         0.26548
C         20.96587         2.02938         0.45205
C         20.97556         3.48643         0.67993
C         22.19535         1.37123         0.35878
C         22.22422         4.25543         0.51249
C         20.96911         6.39141         0.41321
C         20.94976         7.77988         0.35359
C         22.19120         5.65394         0.52878
C         22.17681         8.54467         0.38357
C         20.89473        10.66583         0.29717
C         20.89988        12.09493         0.36851
C         22.14090         9.94336         0.29535
C         22.14098        12.83151         0.21847
C         20.90227        14.98831         0.22057
C         20.88722        16.40000         0.12676
C         22.10732        14.26663         0.07613
C         22.10633        17.11773        -0.12162
C         20.89277        19.24688         0.17486
C         22.10993        18.57490        -0.07128
C         23.43503         2.08220         0.38283
C         23.45091         3.52282         0.43515
C         24.65627         1.38362         0.29395
C         24.68287         4.22423         0.32227
C         23.47309         6.39703         0.81237
C         23.44422         7.85285         0.43294
C         24.70297         5.66036         0.33221
C         24.64418         8.52928         0.19583
C         23.42320        10.70092         0.54916
C         23.36357        12.14578         0.13218
C         24.65227         9.96437         0.06855
C         24.56043        12.83334        -0.19451
C         23.32137        14.97441        -0.20001
C         23.30287        16.40800        -0.28483
C         24.51308        14.22621        -0.41127
C         24.54684        17.14768        -0.59845
C         23.29995        19.31612        -0.21889
C         24.53484        18.72531        -0.68766
C         25.89104         2.06184         0.20568
C         25.89872         3.49893         0.18140
C         27.12686         1.36305         0.12295
C         27.12490         4.20010         0.03378
C         25.87962         6.35018         0.06840
C         25.88871         7.80658         0.00813
C         27.12235         5.62892        -0.08516
C         27.05702         8.49236        -0.28274
C         25.82051        10.64553        -0.23114
C         25.82757        12.10257        -0.31600
C         27.07363         9.92798        -0.38932
C         27.01948        12.75848        -0.50044
C         25.75964        14.95753        -0.67910
C         25.78309        16.39393        -0.38840
C         27.05982        14.22551        -0.63296
C         26.99459        16.95882         0.02319
C         25.78695        19.55465        -0.84594
C         26.98663        19.16641        -0.32891
C         28.33977         2.04590         0.00708
C         28.34724         3.48311        -0.05377
C         29.60007         1.35203        -0.06134
C         29.57257         4.18978        -0.18936
C         28.32862         6.31394        -0.29156
C         28.29411         7.75345        -0.72781
C         29.56839         5.61696        -0.29394
C         29.57692         8.49557        -0.44783
C         28.28591        10.60022        -0.57023
C         28.28795        12.05554        -0.93943
C         29.55098         9.91193        -0.46065
C         29.56342        12.79816        -0.58743
C         28.30800        14.89695        -0.09756
C         28.25373        16.39565        -0.14305
C         29.55685        14.30279        -0.76736
C         29.48098        17.22689         0.16067
C         28.35851        19.49485        -0.64523
C         29.45756        18.67554        -0.39767
C         30.77861         2.03456        -0.17705
C         30.80516         3.47138        -0.24662
C         32.00540         4.19171        -0.37671
C         30.80915         6.32575        -0.37833
C         30.79739         7.79264        -0.35965
C         32.00317         5.58806        -0.42529
C         31.98801         8.54137        -0.22289
C         30.76319        10.65003        -0.32528
C         30.73931        12.12061        -0.32490
C         31.96671         9.93103        -0.20439
C         31.93333        12.87963        -0.05205
C         30.78217        15.03079        -0.27122
C         30.76569        16.46030        -0.19063
C         31.93988        14.26329        -0.01134
C         31.94539        17.18711        -0.33331
C         30.74090        19.28420        -0.60811
C         31.92771        18.59193        -0.49974
O         26.91422        18.19297         0.68630
O         12.97478         3.38466         1.97729
O          4.37978         4.00114        -2.37081
O          3.12063         8.46361        -2.12392
O          2.29777        13.51247         1.63806
O         26.53333        14.65211        -1.93013
O         24.41115        17.86934        -1.87558
O          6.18378        15.06419         1.67082
O         20.26410         3.93128         1.90946
O          8.97401         8.00830         1.94820
O          4.91007        14.29312        -1.63274
H          4.09466        13.88586        -1.99124
O         28.18670         7.69835        -2.20316
H         29.01385         7.29230        -2.53960
O         11.24611         3.12319        -1.73090
H         11.23790         2.52295        -2.50579
O         29.53585        17.36027         1.62465
H         28.72429        17.85669         1.87881
O         18.71578         6.30686         2.25565
H         17.96450         6.75418         2.69864
O         15.01112        17.18326         2.22977
H         14.51684        16.42500         2.63259
O         16.28810        12.30045         2.41610
H         17.18221        11.93668         2.59672
O          3.31006        16.13119        -1.82370
H          3.44635        16.95382        -2.33920
O         13.45675        12.28649         2.67778
H         14.37239        12.06738         2.97953
O          9.70752        16.99612         1.40073
H          8.79111        17.23857         1.65204
O          8.68910        16.31422        -2.09426
H          9.62543        16.13591        -2.35307
O         19.45852         5.62292        -1.27811
H         19.44383         6.55918        -1.60486
O         12.06797         5.68012         2.68861
H         12.52666         4.88939         3.05580
O         11.31337         7.99928        -0.90695
H         10.71141         7.43472        -1.43618
O         28.20668        12.09854        -2.41262
H         28.15125        13.05337        -2.66140
O         16.80168        12.53269        -1.21785
H         17.58294        12.75988        -1.76383
O         17.19534         0.06286         0.54492
H         17.14670         0.24993         1.50476
O         14.81116         8.45446         2.78058
H         14.81992         7.51074         3.05466
O         11.90764         8.39551         2.67824
H         12.73844         8.63365         3.14864
O         23.55347        10.74076         2.02360
H         23.58947         9.80921         2.33323
O          3.97894        15.52651         1.71262
H          3.96891        14.72607         2.28319
O         19.61866         8.41126        -1.51736
H         20.41699         8.87421        -1.85314
O         10.54286         2.58977         1.82654
H         11.37610         2.42407         2.32659
O         11.30131        16.33048        -1.83283
H         12.18265        15.95018        -2.03432
O         29.42197        14.58923        -2.19511
H         30.23566        14.27154        -2.64030
O         15.55332        16.54928        -1.34589
H         16.26826        16.11058        -1.85390
O         28.38103        14.53141         1.31288
H         28.98840        15.16869         1.75355
O         13.40491        15.00178         2.38998
H         13.35978        14.05493         2.70182
O         19.73835        14.35072         2.18467
H         20.60915        13.98740         2.45442
O         23.58652         6.40444         2.29319
H         23.35079         5.50544         2.60928
H          0.35766         1.57638        -0.43255
H          0.30528         4.03044        -0.46499
H          2.47005         0.30893        -0.67979
H          0.26405         5.91835        -0.82049
H          0.18589         8.31409        -0.56251
H          0.20440        10.30387        -0.62500
H          0.14844        12.65180         0.07076
H          0.16575        14.73546         0.56123
H          0.24848        17.15613         0.23474
H          1.58361        19.28674         0.00551
H          4.94247         0.33148        -0.86411
H          3.73014        20.40814        -0.48237
H          7.39491         0.33219        -0.90308
H          6.20085        20.34991        -0.63878
H          9.89753         0.42582        -0.98125
H          8.68098        20.27393        -0.86021
H         12.34796         0.44345        -0.80774
H         11.13532        20.27584        -0.60190
H         14.80787         0.31550        -0.33303
H         13.52578        20.33611        -0.20018
H         17.32830         1.05543        -1.24555
H         15.97550        20.35761         0.02627
H         19.69936         0.29188         0.14820
H         18.44045        20.35414         0.34001
H         22.21780         0.27943         0.22247
H         20.88771        20.34653         0.21078
H         24.64449         0.28361         0.27546
H         23.29815        20.37709         0.07385
H         27.12261         0.26319         0.15530
H         25.74745        20.32873        -1.62721
H         29.59804         0.25307        -0.01443
H         28.55986        20.47508        -1.10863
H         31.73273         1.48919        -0.22435
H         32.96010         3.64843        -0.42645
H         32.96734         6.10831        -0.50681
H         32.95468         8.02928        -0.12654
H         32.92224        10.46240        -0.10272
H         32.86497        12.35228         0.19041
H         32.86649        14.77123         0.29388
H         32.90132        16.66142        -0.47143
H         30.76652        20.35636        -0.85560
H         32.87953        19.12097        -0.64889
