         424
 CSIRO Nanostructure Databank - Neutral Graphene Oxide Data Set
C          1.31251         3.52355        -0.49570
C          0.11976         4.20881        -0.30300
C          1.29192         6.34743        -0.47253
C          0.10500         5.60564        -0.27751
C          1.28174         7.81412        -0.45398
C          0.08027         8.54612        -0.45294
C          1.27913        10.66807        -0.30211
C          0.07151         9.93394        -0.38195
C          1.30526        12.13367        -0.27999
C          0.08901        12.87569        -0.37531
C          1.21253        15.00865         0.05223
C          0.03723        14.23875        -0.17012
C          1.18200        16.37063         0.37604
C         -0.05556        17.12263         0.49566
C          1.17187        19.28764         0.84270
C         -0.07471        18.45877         0.68942
C          1.23972        20.49001        -0.08404
C          0.13924        20.90970        -0.81239
C          1.39391        22.82145        -1.58153
C          0.24273        22.05159        -1.62739
C          1.36207        25.10362        -1.74757
C          0.17196        25.81975        -1.86769
C          1.22550        27.72225        -0.80441
C          0.08142        27.10349        -1.32831
C          1.20029        29.13473        -0.44104
C          0.00686        29.85356        -0.27512
C          1.20282        31.96959        -0.00449
C          0.01295        31.23377        -0.03752
C          1.21355        33.43394         0.10359
C          0.02115        34.17977         0.31953
C          1.22567        36.29083         0.22378
C          0.04123        35.56605         0.43586
C          1.28615        37.73009         0.33558
C          3.75822         3.51615        -0.74986
C          2.52810         4.23567        -0.66428
C          3.75695         6.43103        -1.01450
C          2.50702         5.65773        -0.65744
C          3.76870         7.81728        -0.39803
C          2.51282         8.53085        -0.37668
C          3.80499        10.67390        -0.29399
C          2.48731         9.94753        -0.27473
C          3.73891        12.12965         0.10745
C          2.51891        12.82708        -0.09644
C          3.71420        15.01345         0.40988
C          2.53313        14.33644        -0.24823
C          3.66546        16.34204         0.70258
C          2.41516        17.08916         0.61247
C          3.67711        19.20697         0.69337
C          2.43038        18.47218         0.72971
C          3.67547        20.59719         0.31444
C          2.47150        21.21591        -0.14774
C          3.70922        23.33613        -0.66344
C          2.53162        22.50013        -0.78513
C          3.70174        24.80154        -0.81344
C          2.49767        25.59153        -1.05751
C          3.67014        27.67753        -0.44599
C          2.45295        26.98598        -0.72866
C          3.66433        29.11312        -0.35546
C          2.43613        29.83391        -0.31578
C          3.67566        31.95090        -0.18069
C          2.44185        31.25995        -0.15453
C          3.74101        33.42777         0.07726
C          2.42101        34.13467        -0.03741
C          3.56825        36.26910        -0.51045
C          2.43207        35.56938        -0.08606
C          3.50939        37.74882        -0.79510
C          2.37032        38.42606        -0.08129
C          6.18204         3.44495        -0.46008
C          5.00325         4.16370        -0.65220
C          6.26338         6.36780        -0.25826
C          5.05183         5.65258        -0.76550
C          6.19340         7.78922         0.13645
C          4.95270         8.45020         0.03200
C          6.09354        10.58362         0.91486
C          4.85711         9.87508         0.44191
C          6.12220        12.06710         0.79105
C          4.93235        12.78115         0.46909
C          6.08444        14.87617         1.29072
C          5.03836        14.29374         0.31849
C          6.15460        16.37249         1.15515
C          4.83930        17.08927         1.31411
C          6.12606        19.20160         0.71926
C          4.88315        18.52621         0.86565
C          6.12794        20.60948         0.43588
C          4.89884        21.29836         0.18990
C          6.15026        23.37844        -0.14011
C          4.90447        22.68884        -0.20073
C          6.22139        24.82629        -0.55677
C          4.87914        25.52749        -0.53133
C          6.12976        27.68297        -0.25597
C          4.88513        26.94977        -0.40789
C          6.12479        29.11273        -0.31388
C          4.89208        29.82265        -0.34840
C          6.12564        31.97235        -0.48277
C          4.89064        31.25603        -0.33802
C          6.07794        33.40434        -0.72740
C          4.88669        34.08701        -0.64892
C          6.03603        36.24376        -0.31036
C          4.81039        35.56702        -0.98238
C          6.03631        37.75759        -0.42109
C          4.83270        38.42432        -0.51542
C          8.68504         3.41329         0.06970
C          7.39036         4.06993         0.08803
C          8.67571         6.28897         0.52728
C          7.38892         5.57514         0.32632
C          8.62632         7.69515         0.74228
C          7.39034         8.43893         0.61751
C          8.59314        10.52076         1.26053
C          7.34399         9.80580         0.97099
C          8.59722        12.03107         1.22018
C          7.33747        12.75987         0.97618
C          8.62035        14.85434         1.05013
C          7.39840        14.17332         1.06171
C          8.65865        16.34918         1.28941
C          7.33296        17.04804         1.03914
C          8.58448        19.18807         0.67719
C          7.34949        18.48820         0.82170
C          8.59496        20.60891         0.54567
C          7.36113        21.30950         0.39488
C          8.61316        23.44437         0.24116
C          7.34902        22.72398         0.17717
C          8.61481        24.84774         0.20453
C          7.27894        25.54776         0.27793
C          8.57453        27.71137         0.01599
C          7.34521        27.01154        -0.05242
C          8.57743        29.13582        -0.12260
C          7.35021        29.83369        -0.27367
C          8.59998        31.94577        -0.49794
C          7.34907        31.26338        -0.44098
C          8.68006        33.37621        -0.98324
C          7.35280        34.13296        -1.00939
C          8.56121        36.35321        -0.42130
C          7.33947        35.61457        -0.76862
C          8.52461        37.75068        -0.24084
C          7.28229        38.44046        -0.31736
C         11.10937         3.41896         0.35317
C          9.86167         4.10572         0.39203
C         11.13997         6.19039         1.06210
C          9.84893         5.53330         0.62502
C         11.12602         7.68071         0.91290
C          9.85773         8.36704         1.32595
C         11.04272        10.54218         0.76871
C          9.86932         9.83465         1.04761
C         11.04022        12.00101         0.70529
C          9.86279        12.72525         0.90399
C         11.09593        14.85871         0.73011
C          9.84354        14.15256         0.86167
C         11.10209        16.28230         0.68465
C          9.78409        16.99068         0.47794
C         11.03058        19.18319         0.71914
C          9.82677        18.48648         0.67672
C         11.06593        20.60933         0.65386
C          9.84205        21.31163         0.51241
C         11.07676        23.45438         0.41910
C          9.84361        22.73951         0.38117
C         11.06865        24.87675         0.35028
C          9.82695        25.57361         0.25690
C         11.03878        27.72936         0.20816
C          9.81384        27.01179         0.17923
C         11.03066        29.15679         0.09997
C          9.80851        29.85362        -0.06166
C         11.05678        32.01319        -0.13399
C          9.79766        31.27887        -0.23845
C         11.06388        33.40500        -0.17634
C          9.76773        34.11266        -0.20753
C         11.03757        36.32445         0.07538
C          9.75872        35.59867        -0.05966
C         10.98927        37.77853         0.10837
C          9.76817        38.44416        -0.00156
C         13.57760         3.42967         0.14065
C         12.34934         4.11030         0.35011
C         13.55372         6.25112         0.30749
C         12.36415         5.52563         0.50092
C         13.52383         7.70306         0.28799
C         12.27837         8.39860         0.58109
C         13.40521        10.57379        -0.08651
C         12.24933         9.82916         0.51601
C         13.47624        12.00707         0.34786
C         12.30152        12.70367         0.57204
C         13.55649        14.86434         0.54515
C         12.31601        14.15075         0.67103
C         13.55850        16.29607         0.61329
C         12.30942        16.97810         0.70672
C         13.59004        19.18816         0.91217
C         12.28745        18.43696         0.93339
C         13.56786        20.64431         0.69200
C         12.32654        21.32538         0.63733
C         13.55862        23.46228         0.54673
C         12.32046        22.74690         0.52248
C         13.53804        24.90412         0.48752
C         12.30618        25.60307         0.39216
C         13.51109        27.76619         0.33117
C         12.28396        27.03236         0.32253
C         13.50637        29.18875         0.31375
C         12.26494        29.89035         0.19621
C         13.45548        32.04244         0.66961
C         12.25815        31.29655         0.14342
C         13.49946        33.48791         0.31164
C         12.33438        34.18591        -0.30315
C         13.48761        36.36537         0.16861
C         12.23397        35.64632         0.09341
C         13.45724        37.82657         0.17307
C         12.23423        38.48685         0.18000
C         16.08314         3.35886         0.03926
C         14.78438         4.13473         0.09970
C         16.07004         6.32146         0.17829
C         14.77867         5.54003         0.14309
C         15.89294         7.66189        -0.53007
C         14.69378         8.43175        -0.02140
C         15.92879        10.57166        -0.24039
C         14.71406         9.83666        -0.03318
C         15.96659        11.97268        -0.09178
C         14.80576        12.66974         0.56910
C         15.97997        14.85903         0.11475
C         14.76967        14.15905         0.34768
C         16.00316        16.29111         0.24632
C         14.79738        17.02063         0.53330
C         16.03500        19.18402         0.58426
C         14.82773        18.44225         0.63500
C         16.06161        20.60078         0.63430
C         14.80568        21.34172         0.64213
C         16.06325        23.50871         0.88879
C         14.78530        22.75659         0.61946
C         16.01310        24.94743         0.44021
C         14.77419        25.63498         0.43244
C         15.97568        27.78720         0.23535
C         14.75153        27.05942         0.33148
C         15.98060        29.21454         0.22397
C         14.74660        29.92894         0.30755
C         15.98478        32.07404         0.32626
C         14.76022        31.33784         0.37725
C         15.99568        33.50715         0.35947
C         14.71727        34.25119         0.70621
C         15.95170        36.39622        -0.11534
C         14.68321        35.68463         0.24704
C         15.92333        37.86060         0.26327
C         14.70408        38.52622         0.28915
C         18.41034         3.49665        -0.91556
C         17.25805         4.17330        -0.45120
C         18.38671         6.30673        -0.81911
C         17.24435         5.56802        -0.40951
C         18.37937         7.75441        -0.80519
C         17.17579         8.45292        -0.56428
C         18.35570        10.59510        -0.77094
C         17.15118         9.85841        -0.53239
C         18.31743        12.01871        -0.78032
C         17.15215        12.70883        -0.38033
C         18.38497        14.88222        -0.45600
C         17.17377        14.15548        -0.23428
C         18.42718        16.30089        -0.20985
C         17.23740        16.97642         0.15642
C         18.58624        19.15986         0.34439
C         17.28212        18.39832         0.54145
C         18.51991        20.63088         0.30655
C         17.32379        21.32550         0.52289
C         18.47712        23.51351         0.20618
C         17.32202        22.77742         0.48027
C         18.45509        24.94746         0.04508
C         17.21435        25.65193         0.20244
C         18.42232        27.79968        -0.02401
C         17.19859        27.07742         0.11462
C         18.43029        29.20873         0.10572
C         17.21712        29.93009         0.19885
C         18.46514        32.08778         0.21561
C         17.21959        31.36661         0.23470
C         18.45961        33.51548         0.25508
C         17.20385        34.22332         0.28352
C         18.40448        36.37974         0.35977
C         17.21359        35.66124         0.25523
C         18.37687        37.83117         0.43423
C         17.15990        38.52660         0.43364
C         19.54699         4.20071        -1.27394
C         20.74910         6.36728        -1.50733
C         19.56232         5.61527        -1.21215
C         20.77209         7.72970        -1.39106
C         19.59078         8.47395        -1.04555
C         20.80324        10.67074        -1.06099
C         19.57978         9.89337        -0.99521
C         20.78655        12.01859        -1.13465
C         19.49586        12.76821        -1.34825
C         20.71616        14.95575        -1.17059
C         19.54825        14.21954        -0.93650
C         20.77729        16.31980        -0.92026
C         19.65002        17.03538        -0.44653
C         20.83791        19.22864        -0.68136
C         19.70878        18.45146        -0.28328
C         20.92607        20.56838        -0.42453
C         19.81170        21.31778         0.17230
C         20.91522        23.59581        -0.46489
C         19.79525        22.84941         0.12979
C         20.82875        24.92974        -0.65983
C         19.62768        25.67021        -0.32620
C         20.76983        27.88193        -0.75556
C         19.62642        27.08741        -0.34339
C         20.81741        29.21860        -0.54336
C         19.76010        29.88811         0.30146
C         20.89661        32.12026         0.21796
C         19.70507        31.39344         0.18981
C         20.89314        33.51478         0.27211
C         19.68740        34.23744         0.30517
C         20.84001        36.44058         0.55469
C         19.67319        35.69222         0.42218
C         20.80413        37.85224         0.63957
C         19.60921        38.53493         0.58096
O         12.95014        18.80205         2.19656
O          7.31553        35.05809        -2.16398
O         20.17306        22.13092         1.35408
O          8.58335        11.32694         2.51794
O         18.19144        18.63370         1.66780
O          1.44724        23.90512        -2.46488
O          7.04478         4.71556         1.42551
O          6.10273         6.10063        -1.70880
O          9.41168        34.66139         1.10779
O          5.01024        10.13234         1.85686
O          8.97938        16.56156         2.68713
H          8.25064        16.19220         3.22876
O          9.76119         8.22842         2.81893
H          9.13360         8.91434         3.13843
O         15.96907        36.38669        -1.59974
H         15.14198        36.82249        -1.90002
O          4.57323        17.12558         2.75866
H          4.75931        16.21703         3.09772
O          1.15469        19.83917         2.20177
H          1.38309        19.11301         2.81971
O          6.68056        24.86198        -1.94079
H          6.00818        24.41149        -2.49345
O         20.14791        29.63113         1.70427
H         20.16760        28.65739         1.82369
O          3.23345        37.90772        -2.23409
H          3.80954        37.24972        -2.69764
O          4.26351        10.68550        -1.68928
H          3.57492        11.13380        -2.22479
O          6.83424        25.45313         1.66537
H          7.49318        25.91118         2.22775
O          4.84150        35.74958        -2.41962
H          5.72612        35.43360        -2.73973
O          5.89743        35.92118         1.10591
H          6.68441        36.27124         1.57689
O         15.58002         7.33720        -1.92264
H         15.55325         8.17713        -2.42738
O          2.77074        14.53674        -1.70817
H          2.58495        15.48161        -1.90060
O         16.37516         6.61523         1.56816
H         16.40768         5.77076         2.06317
O         12.61042        34.25292        -1.78086
H         12.47592        33.35005        -2.14311
O         19.28239        12.79315        -2.81411
H         19.26128        11.85970        -3.11550
O          9.16352        33.27963        -2.35069
H          8.76083        34.02892        -2.84931
O         13.31357        31.98023         2.16593
H         13.36896        31.03159         2.41543
O         11.21728         5.93960         2.51805
H         10.62316         6.60286         2.95168
O          9.42663        16.77684        -0.92130
H         10.13117        17.16196        -1.48257
O         16.13848        23.58393         2.36998
H         17.04804        23.86796         2.60417
O          5.53142        14.52907        -1.02822
H          4.77551        14.35346        -1.63851
O         15.07587        12.51085         2.02539
H         14.38570        13.01621         2.50696
O         13.10188        10.62972        -1.55625
H         12.86611         9.71774        -1.83301
O         15.92755         2.17319        -0.74965
H         15.74335         2.44454        -1.67202
O          3.67137         6.65171        -2.45850
H          4.59685         6.79871        -2.76480
O          5.64837        14.57508         2.65111
H          5.62556        13.59771         2.75121
O          4.10501        33.58459         1.51001
H          4.61615        34.42608         1.59402
O         14.72035        34.33620         2.18662
H         14.29338        33.50802         2.52236
H          1.32868         2.42433        -0.50143
H         -0.81730         3.65247        -0.16126
H         -0.84946         6.12118        -0.10678
H         -0.88321         8.02327        -0.52217
H         -0.89708        10.45041        -0.39224
H         -0.85693        12.34327        -0.53860
H         -0.94735        14.72572        -0.14431
H         -1.01073        16.58244         0.42796
H         -1.04046        18.96807         0.82516
H         -0.79906        20.33944        -0.79500
H         -0.58343        22.34947        -2.28510
H         -0.67385        25.37634        -2.40829
H         -0.86312        27.65657        -1.41371
H         -0.96153        29.33742        -0.32757
H         -0.95427        31.74065         0.08308
H         -0.93467        33.65580         0.45588
H         -0.88814        36.10666         0.66651
H          0.41942        38.25343         0.76760
H          3.72787         2.41722        -0.70379
H          2.39333        39.52271         0.00442
H          6.15849         2.34697        -0.53809
H          4.83340        39.52585        -0.48012
H          8.74860         2.37671        -0.29276
H          7.27898        39.54014        -0.29127
H         11.10816         2.32827         0.20841
H          9.75202        39.54353         0.03819
H         13.58807         2.33425         0.04532
H         12.21405        39.58678         0.21412
H         16.31897         3.00658         1.08434
H         14.68510        39.61634         0.44267
H         18.39601         2.39851        -0.96155
H         17.16403        39.61548         0.59629
H         20.45199         3.66552        -1.59601
H         21.65744         5.82344        -1.80553
H         21.70505         8.26848        -1.60604
H         21.76772        10.14876        -0.98431
H         21.73916        12.56627        -1.14804
H         21.60687        14.46070        -1.57971
H         21.72362        16.84220        -1.10933
H         21.69643        18.73467        -1.15595
H         21.86086        21.09760        -0.65120
H         21.85954        23.07255        -0.66687
H         21.69918        25.47042        -1.05493
H         21.59789        27.39400        -1.28969
H         21.68806        29.79697        -0.88559
H         21.85892        31.58981         0.23193
H         21.85694        34.03957         0.31100
H         21.81963        35.94568         0.59429
H         21.74846        38.40374         0.74975
H         19.59070        39.63248         0.64448
