         244
 CSIRO Nanostructure Databank - Neutral Graphene Oxide Data Set
C          1.68116         2.13738        -1.27954
C          1.59371         3.52975        -1.06251
C          2.75113         1.39164        -0.81856
C          2.53567         4.21717        -0.28462
C          1.34776         6.36849        -0.40193
C          1.30765         7.75638        -0.32881
C          2.48382         5.62428        -0.04765
C          2.45397         8.52927        -0.01450
C          1.33434        10.65695        -0.65745
C          1.33626        12.02944        -0.73918
C          2.47178         9.92504        -0.21679
C          2.46605        12.80464        -0.28641
C          1.21216        14.98944        -0.50483
C          1.21663        16.38297        -0.62161
C          2.39619        14.27065        -0.27540
C          2.42502        17.10521        -0.57529
C          2.47026        18.56480        -0.68950
C          3.81559         2.01831        -0.10557
C          3.65219         3.43424         0.27722
C          4.99160         1.35337         0.21221
C          4.91290         4.19917         0.71820
C          3.56351         6.34574         0.75238
C          3.66144         7.82900         0.43607
C          4.91846         5.67083         0.69446
C          4.80000         8.51339         0.73679
C          3.78619        10.66091        -0.09881
C          3.62375        12.15121         0.09474
C          4.71324        10.01528         0.95459
C          4.73585        12.93841         0.75038
C          3.62232        15.00139        -0.14849
C          3.62558        16.40289        -0.37018
C          4.83619        14.32298         0.16379
C          4.91438        17.15982        -0.44979
C          3.57199        19.27366        -0.37310
C          4.82315        18.59983         0.14087
C          6.18656         2.05774         0.57407
C          6.18129         3.48269         0.67586
C          7.41534         1.37472         0.65315
C          7.38631         4.22157         0.68309
C          6.09579         6.35934         0.83079
C          6.06432         7.83216         1.20306
C          7.37459         5.66481         0.75312
C          7.32530         8.57654         0.77674
C          6.07605        10.71059         0.94874
C          6.07556        12.20415         0.82943
C          7.32092         9.94577         0.66489
C          7.31959        12.87969         0.38875
C          6.06321        15.03925         0.25100
C          6.08455        16.42716         0.11588
C          7.32174        14.29421         0.30837
C          7.29513        17.21062         0.55010
C          6.10548        19.27688        -0.23498
C          7.32603        18.62482        -0.00938
C          8.63434         2.08279         0.70805
C          8.62447         3.52029         0.67082
C          9.87282         1.39714         0.72280
C          9.84523         4.24137         0.58866
C          8.58637         6.36824         0.68454
C          8.64012         7.85383         0.96911
C          9.82202         5.67291         0.53338
C          9.82150         8.56283         0.34251
C          8.53884        10.69700         0.42167
C          8.50324        12.10499         0.24608
C          9.77584         9.97090         0.22854
C          9.73894        12.80040        -0.16336
C          8.52039        15.02795         0.14997
C          8.55801        16.43849         0.25784
C          9.76128        14.31726        -0.17741
C          9.77776        17.11359         0.22589
C          8.56529        19.24110        -0.16234
C          9.78882        18.60961         0.44360
C         11.08613         2.09546         0.63205
C         11.07961         3.52918         0.54451
C         12.32743         1.39698         0.54216
C         12.30082         4.23320         0.35935
C         11.04080         6.37533         0.25431
C         11.02870         7.83038         0.07038
C         12.23784         5.65217         0.12787
C         12.18241         8.50040        -0.36070
C         10.98335        10.69319        -0.05649
C         11.02997        12.09249        -0.09359
C         12.17584         9.95838        -0.48329
C         12.26180        12.81343        -0.08751
C         11.04012        15.00883         0.04144
C         11.00505        16.38858         0.22575
C         12.27324        14.25633         0.10636
C         12.24728        17.13928         0.50103
C         11.09205        19.23772         0.00976
C         12.26068        18.56880         0.09530
C         13.51649         2.07525         0.35493
C         13.52656         3.49985         0.27963
C         14.79669         1.28954         0.12960
C         14.78784         4.17538         0.08157
C         13.45132         6.30336        -0.38786
C         13.45167         7.81620        -0.65602
C         14.75995         5.65586        -0.07756
C         14.72409         8.53709        -0.65048
C         13.48001        10.73822        -0.68281
C         13.50587        12.12263        -0.18092
C         14.79570        10.01047        -0.93840
C         14.74094        12.72981         0.15122
C         13.47245        14.90226         0.38901
C         13.51701        16.35888         0.62747
C         14.70794        14.13474         0.63091
C         14.81039        17.04533         0.39703
C         13.58016        19.24876        -0.21767
C         14.82048        18.37548        -0.13471
C         16.04168         2.06127         0.59442
C         15.98732         3.50009         0.12335
C         17.31973         1.35793         0.21700
C         17.24019         4.15734        -0.29010
C         16.00429         6.40924        -0.36381
C         15.98821         7.79344        -0.99027
C         17.25416         5.62657        -0.59542
C         17.25620         8.54453        -0.59151
C         16.02220        10.67412        -0.34412
C         15.97827        12.02031         0.02852
C         17.25475         9.92087        -0.35938
C         17.28495        12.79956         0.06046
C         15.98427        14.88035         0.98187
C         16.00300        16.36624         0.68193
C         17.24395        14.06684         0.88132
C         17.21747        17.09348         0.47198
C         16.00890        18.92516        -0.59233
C         17.25120        18.28280        -0.32336
C         18.51248         2.02583        -0.01942
C         18.53339         3.46665        -0.11232
C         19.77065         1.33617        -0.15908
C         19.72448         4.17016        -0.22110
C         18.50546         6.39130        -0.47934
C         18.47624         7.77690        -0.46980
C         19.74808         5.66937        -0.01636
C         19.73939         8.48293        -0.29197
C         18.50592        10.59644         0.01846
C         18.49779        11.93477         0.35529
C         19.74287         9.83665        -0.01229
C         19.75797        12.54217         0.95391
C         18.42388        14.54934         1.37813
C         18.45038        16.69793         1.04769
C         19.72296        14.04207         1.02740
C         19.68548        17.09397         0.58796
C         18.50505        18.78682        -0.74519
C         19.72089        18.15805        -0.37937
C         20.93929         2.03438        -0.33209
C         20.95837         3.46512        -0.34600
C         22.16086         4.19360        -0.56785
C         21.00535         6.35960        -0.48706
C         20.98368         7.75818        -0.51176
C         22.17644         5.57475        -0.67465
C         22.15485         8.56309        -0.81423
C         21.08054        10.47467         0.32496
C         21.00887        11.98176         0.33986
C         22.18825         9.87512        -0.50144
C         22.05717        12.81541         0.04165
C         20.86125        14.84506         0.79534
C         20.92091        16.37549         1.10948
C         22.00216        14.21631         0.26933
C         22.17700        17.00918         0.57886
C         20.98289        18.59080        -0.85987
C         22.17265        18.01827        -0.35041
O         12.59610        10.50227        -1.82317
O         12.79932        16.84886         1.83886
O         18.38720        15.75999         2.09822
O         15.50876         6.35296         1.00479
O         13.33986         6.78900        -1.74751
O          9.63855        13.54712        -1.43494
O          6.26625        11.54917         2.13683
O         15.13216        14.38506         2.05860
O         17.15950         4.68014        -1.70235
O          3.92774         3.67654         1.69665
O         15.97540         2.06188         2.05989
H         16.75515         2.55110         2.39794
O          7.21946        17.35833         2.01447
H          8.01211        17.89902         2.27059
O         16.06252         7.59755        -2.42915
H         15.81858         8.46731        -2.83348
O          4.31599        13.13788         2.14706
H          3.48693        13.66246         2.13339
O          4.70617        18.51002         1.57938
H          5.55456        18.14288         1.94051
O          8.87493         7.93592         2.42679
H          7.99325         7.81871         2.86148
O          5.18259        17.39584        -1.87874
H          5.18983        16.52567        -2.33127
O         17.45326        13.25210        -1.33764
H         17.35729        12.46388        -1.91551
O         19.73454        12.10656         2.39237
H         20.34587        12.70005         2.88098
O          4.49808        10.47764        -1.37443
H          3.91306        10.80948        -2.08828
O         20.97344        16.47724         2.55442
H         20.08436        16.21474         2.89071
O         15.03803        10.12132        -2.40315
H         14.13818        10.09021        -2.81376
O          4.14257        10.16616         2.26937
H          4.50092        11.01437         2.63905
O         14.75145         0.03416         0.80232
H         14.95445         0.21908         1.74562
O          9.67480        18.80620         1.91093
H         10.47875        18.41322         2.31732
O          6.06085         7.87629         2.67413
H          5.41898         8.57627         2.94313
O         13.50907        19.89280        -1.49864
H         13.38569        19.20596        -2.18506
O         19.73717         5.80919         1.45668
H         19.92859         6.75011         1.66390
O          3.12135         6.28344         2.14438
H          3.20499         5.33681         2.41519
O         21.36722        10.07915         1.71357
H         20.71365        10.57401         2.27225
H          0.89037         1.64563        -1.86307
H          0.75206         4.07148        -1.51446
H          2.81816         0.31734        -1.04129
H          0.45447         5.84994        -0.77837
H          0.37712         8.25647        -0.62721
H          0.40654        10.12543        -0.91039
H          0.43253        12.54485        -1.08962
H          0.25290        14.45936        -0.58339
H          0.26801        16.91869        -0.76928
H          1.55166        19.08015        -1.01005
H          5.07287         0.27725        -0.00302
H          3.55556        20.37325        -0.42717
H          7.43017         0.27606         0.60632
H          6.10144        20.29208        -0.66304
H          9.87989         0.29764         0.75158
H          8.63216        20.25365        -0.58883
H         12.33590         0.29882         0.59937
H         11.08853        20.29373        -0.30269
H         14.88533         1.08284        -0.97145
H         13.71782        20.07564         0.53212
H         17.32221         0.25925         0.28858
H         15.99387        19.89726        -1.10590
H         19.77923         0.23739        -0.11864
H         18.53511        19.67938        -1.38696
H         21.89094         1.49422        -0.44509
H         23.09673         3.63244        -0.70614
H         23.12625         6.07576        -0.91093
H         23.00954         8.09284        -1.32222
H         23.08124        10.47174        -0.73502
H         22.98983        12.40618        -0.37334
H         22.88336        14.81750         0.00792
H         23.13279        16.68716         1.01735
H         21.03858        19.41296        -1.58655
H         23.13421        18.43301        -0.68890
