         261
 CSIRO Nanostructure Databank - Neutral Graphene Oxide Data Set
C        -11.25120         0.65979         0.43174
C        -10.05611         1.54081         0.79130
C         -8.82520         0.75809         0.36140
C         -7.60312         1.48216        -0.05347
C         -6.32087         0.71287        -0.29265
C         -5.08414         1.45613         0.15129
C         -3.77581         0.76310         0.29253
C         -2.51194         1.48609        -0.05090
C         -1.21244         0.72434         0.05554
C          0.06410         1.49259         0.07758
C          1.29551         0.79058         0.57358
C          2.56471         1.53555         0.73140
C          3.84672         0.79931         0.45245
C          5.06102         1.44006         1.06864
C          6.34937         0.67405         1.12410
C          7.58151         1.45084         0.70677
C          8.73896         0.73618         0.06123
C          9.96216         1.50619        -0.49384
C         11.26310         0.74397        -0.32802
C        -10.05486         2.93127         0.16887
C         -8.90033         3.65474        -0.09934
C         -7.55739         2.99645         0.14546
C         -6.36322         3.62022        -0.52635
C         -5.07371         2.89753        -0.29353
C         -3.84600         3.67405         0.10259
C         -2.53284         2.97554        -0.06707
C         -1.27641         3.71444         0.29047
C          0.01669         2.97275         0.27066
C          1.30519         3.70747         0.06251
C          2.58223         3.01357         0.42051
C          3.84044         3.79638         0.70151
C          5.06096         2.95686         1.03306
C          6.29479         3.71424         1.43079
C          8.06885         2.76194         1.32485
C          8.90130         3.66199         0.41012
C          9.94650         3.00582        -0.18828
C         -8.87534         5.05048        -0.41979
C         -7.67531         5.82413        -0.43203
C         -6.40446         5.06968        -0.08486
C         -5.10494         5.77858        -0.57288
C         -3.86131         5.15931         0.04453
C         -2.56666         5.86310        -0.23911
C         -1.27638         5.24904         0.26809
C         -0.05020         5.84266        -0.43970
C          1.23951         5.20431         0.01780
C          2.52646         5.95224        -0.03164
C          3.86812         5.22365         0.19104
C          5.01675         5.80555        -0.65390
C          6.43698         5.17578        -0.52687
C          7.51443         5.82472         0.29068
C          8.73355         5.10968         0.49055
C         -7.65132         7.21629        -0.52732
C         -6.40867         8.03407        -0.54395
C         -5.10035         7.31451        -0.50942
C         -3.85102         8.04774        -0.06336
C         -2.54757         7.35081        -0.30124
C         -1.22659         8.09834        -0.14472
C         -0.07284         7.31059        -0.74014
C          1.15547         8.08389        -0.32029
C          2.44919         7.29746        -0.76430
C          3.75063         8.08681        -0.68958
C          5.05488         7.32553        -0.52675
C          6.22285         7.99613         0.16169
C          7.32814         7.15941         0.68227
C         -6.35346         9.49987        -0.26060
C         -5.19043        10.19248        -0.23254
C         -3.84843         9.54495        -0.12795
C         -2.57082        10.20560        -0.49299
C         -1.33584         9.55446        -0.55657
C         -0.09383        10.22789        -0.75075
C          1.17189         9.57114        -0.62423
C          2.36729        10.24538        -0.40686
C          3.69101         9.55908        -0.39017
C          4.85855        10.09524         0.35508
C          5.96471         9.37383         0.65595
C        -11.18610        -0.68922         0.29370
C         -9.95691        -1.48132         0.39244
C         -8.75603        -0.70363         0.74645
C         -7.37746        -1.69546        -1.07987
C         -6.24238        -0.78250        -0.64879
C         -4.93203        -1.45776        -0.25134
C         -3.70070        -0.71761         0.13660
C         -2.50768        -1.39950         0.76235
C         -1.20749        -0.65641         0.65549
C          0.09952        -1.41024         0.55550
C          1.28755        -0.62724         0.07768
C          2.52898        -1.31660        -0.38606
C          3.84833        -0.59973        -0.10842
C          5.05594        -1.45175         0.19254
C          6.29653        -0.80658         0.75647
C          7.61860        -1.53024         0.62489
C          8.87156        -0.72120         0.42048
C         10.15664        -1.44246         0.14264
C         11.32153        -0.59911        -0.26061
C         -9.90336        -2.84951         0.23610
C         -8.69610        -3.66031         0.10013
C         -7.50103        -3.16930        -0.74678
C         -6.18724        -3.71598        -0.28136
C         -4.94917        -2.93701        -0.01382
C         -3.79223        -3.63115         0.63885
C         -2.47460        -2.90340         0.80784
C         -1.18434        -3.65201         0.60508
C          0.12723        -2.90210         0.46794
C          1.22406        -3.58941        -0.30855
C          2.46857        -2.81619        -0.82408
C          3.81871        -3.56521        -0.67249
C          5.11413        -2.84136        -0.39692
C          6.40495        -3.64206        -0.23237
C          7.65975        -2.98653         0.26490
C          8.94884        -3.63202        -0.12340
C         10.09693        -2.90581        -0.13308
C         -8.70153        -4.99652         0.45499
C         -7.57561        -5.88647         0.20801
C         -6.34725        -5.21329        -0.35225
C         -5.09272        -5.87534         0.20927
C         -3.81877        -5.11842         0.52044
C         -2.53829        -5.82856         0.17454
C         -1.24849        -5.07834         0.11409
C          0.04905        -5.83333         0.29235
C          1.21568        -5.09578        -0.33294
C          2.48774        -5.81915        -0.83296
C          3.76446        -5.06018        -0.37638
C          5.04289        -5.80957        -0.14187
C          6.38516        -5.13222        -0.27198
C          7.67801        -5.91262         0.10220
C          8.94561        -5.14300        -0.40272
C         -7.55974        -7.26059         0.19917
C         -6.29021        -8.00092        -0.27625
C         -5.08566        -7.35107         0.39842
C         -3.77029        -8.07688         0.59718
C         -2.49223        -7.31812         0.40569
C         -1.23346        -8.02201        -0.12062
C          0.04184        -7.31699         0.41890
C          1.38439        -8.06581         0.36072
C          2.49663        -7.33725        -0.49374
C          3.78862        -8.07093        -0.33146
C          5.05138        -7.31190        -0.11005
C          6.38197        -8.08190        -0.28664
C          7.55439        -7.27607        -0.54776
C         -6.21111        -9.50905        -0.17150
C         -5.06087       -10.17970         0.02515
C         -3.77827        -9.60640         0.60591
C         -2.46564       -10.20975         0.12245
C         -1.25643        -9.53635         0.08586
C          0.00336       -10.19202        -0.06098
C          1.26430        -9.53471        -0.12585
C          2.47390       -10.16920        -0.33316
C          3.80457        -9.54884         0.09333
C          5.03017       -10.15715        -0.57805
C          6.18684        -9.48649        -0.74584
O          3.08727        -8.03707        -1.61620
O         -5.58266         7.82952        -1.79532
O         -5.47892        -6.51572         1.49848
O          1.75324         5.87358         1.19834
O          5.35897        -1.51589         1.61484
O         -8.58208         1.04385        -1.05822
O          7.69919        -2.55704         1.65660
O          2.15098         3.16857        -0.98639
O          3.91617         9.04642        -1.77567
O         -1.74352        -3.45525         1.92811
O          1.80084         1.09913         1.89691
O         -1.93685        -0.72503         1.91103
O          7.60296         1.20428        -0.73984
O         -0.65822         3.25040         1.53985
O          0.02964        -6.47018         1.59766
O         -2.54719         2.22728        -1.31232
O         -7.81361        -1.15992         1.40641
O          1.65867        -0.60604        -1.31927
O         -3.88344        -1.15602        -1.23708
O          8.35172         2.74106         2.52942
O          0.50039        -2.22853         1.69643
O          0.83252         8.13136         1.14027
O          4.65444        -3.04093        -1.75627
O         -3.84306         8.77388         1.17972
O         -0.14948         6.35204        -1.80089
O         -5.17340        -3.47783        -1.34394
O         -4.02224        -4.45125         1.80882
O          3.91087         4.94435         1.60964
O          6.67691         4.21287        -1.24529
O          5.54895         3.42599         2.40512
O         -5.65322         3.07874        -1.63444
O         -2.00401        -5.33527        -1.09534
O         -2.57001         6.53790        -1.51593
O          4.22441        -5.30745         0.97967
O         -3.96795         4.48009         1.31447
O         -6.52986         4.79715         1.37783
O         -1.16879        -7.87427        -1.49713
O          6.62430        -4.38372        -1.48938
O          6.11862         7.89330        -1.31951
O         -6.69760        -5.22713        -1.82605
O         -7.60787        -4.00284        -2.00388
O          0.62054        -4.31324        -1.41493
O          5.77209        -7.80805         1.03844
O          4.08391         0.53860        -0.97623
O         -6.10894         0.26020        -1.66181
O         -4.52521         1.21403         1.46634
O          9.79456        -0.99163         1.51435
O         -0.69186         8.16883         1.24752
O         -7.17763         3.40998         1.52968
O          5.60610         0.95746         2.32849
O         -2.97407        -7.61041         1.74230
O          1.87166        -8.16251         1.64264
O         -0.41819         0.90077        -1.15145
O          4.60531         5.51144        -2.00349
H          5.20073         4.79989        -2.34146
O         -5.01095         5.42978        -1.96399
H         -5.27576         6.22134        -2.49257
O          2.25632         6.99308        -2.15256
H          2.78056         7.63244        -2.68455
O          3.92870        -9.74724         1.50207
H          3.20408        -9.19232         1.91882
O         -1.21833         5.69120         1.63436
H         -0.67433         5.05729         2.15554
O          2.51841        -5.73145        -2.25841
H          1.88601        -5.02520        -2.54169
O        -10.01923         1.67281         2.23246
H        -10.58475         2.42765         2.49579
O         -6.13306        -7.71693        -1.69355
H         -6.89572        -8.09310        -2.17966
O          9.11555        -5.36890        -1.80365
H          8.35187        -4.95307        -2.26579
O         -3.83579       -10.02678         2.00384
H         -3.32789        -9.35565         2.51900
O          2.24388        -2.78440        -2.24333
H          3.02129        -2.36104        -2.66976
O         -8.08730        -1.27773        -2.09560
H         -7.83868        -0.33192        -2.29970
O          7.77036        -6.01551         1.52491
H          7.05984        -6.62699         1.83606
O          9.79874         1.48864        -1.94522
H          8.88871         1.81368        -2.13564
H         12.30123        -1.10045        -0.30849
H         12.18596         1.31040        -0.52466
H         10.65976         3.59124        -0.79312
H          9.63014         5.70885         0.72477
H          8.08922         7.64559         1.31190
H          6.74239         9.83284         1.28578
H          4.76175        11.11041         0.76991
H          2.37306        11.34687        -0.39761
H         -0.10250        11.31535        -0.92431
H         -2.61015        11.27950        -0.73619
H         -5.22453        11.28970        -0.14296
H         -7.30776        10.04735        -0.22236
H         -8.60731         7.75163        -0.63769
H         -9.83504         5.56555        -0.57766
H        -11.02914         3.43719         0.07642
H        -12.23336         1.14907         0.33682
H        -12.11280        -1.24546         0.07965
H        -10.85966        -3.39520         0.15704
H         -9.59075        -5.40372         0.96112
H         -8.45686        -7.83462         0.47956
H         -7.10374       -10.07555        -0.48587
H         -5.08416       -11.27945        -0.04384
H         -2.46169       -11.30476        -0.01127
H          0.02445       -11.28023         0.12914
H          2.48376       -11.18471        -0.76717
H          4.96661       -11.20234        -0.91975
H          7.04174        -9.97839        -1.23402
H          8.24551        -7.55426        -1.35786
H          9.83224        -5.59338         0.10795
H         11.04439        -3.40499        -0.39063
