         349
 CSIRO Nanostructure Databank - Neutral Graphene Oxide Data Set
C          1.94878         5.22786         4.65869
C          0.67535         5.73954         4.44742
C          1.53591         7.10996         2.61087
C          0.48110         6.69906         3.45526
C          1.37401         8.27699         1.74578
C          0.25772         9.13277         1.93668
C          1.10479        10.75364         0.35804
C          0.15037        10.37168         1.32190
C          1.17799        12.12542        -0.17174
C         -0.02618        12.84498        -0.31410
C          1.16471        14.93954        -0.66143
C         -0.03894        14.20017        -0.60170
C          1.14924        16.38990        -0.88723
C         -0.06414        17.11010        -1.00005
C          1.12100        19.19936        -1.43659
C         -0.08122        18.46636        -1.27990
C          1.13901        20.60622        -1.77098
C         -0.02616        21.22510        -2.26949
C          1.19192        23.29824        -2.47074
C          0.02252        22.54783        -2.67190
C          1.08420        25.44671        -1.77894
C         -0.14656        25.98698        -1.38380
C          1.02194        27.39884         0.18992
C         -0.18684        26.90315        -0.33496
C          1.04004        28.48756         1.14975
C          4.31063         5.05562         4.07394
C          3.01252         5.58425         3.79941
C          3.86188         6.68235         1.68628
C          2.79355         6.46501         2.69770
C          3.67069         7.89150         0.65074
C          2.37598         8.64678         0.81447
C          3.83717        10.80697        -0.49493
C          2.07609         9.78667         0.03962
C          3.70420        12.14783        -0.25696
C          2.41518        12.82740        -0.34522
C          3.64788        15.01919        -0.47934
C          2.38436        14.24066        -0.50549
C          3.62500        16.41923        -0.97448
C          2.36149        17.10766        -1.02974
C          3.57868        19.24991        -1.36203
C          2.35151        18.51258        -1.28362
C          3.56493        20.65211        -1.41766
C          2.35667        21.35711        -1.65804
C          3.58050        23.58230        -1.65449
C          2.37286        22.78484        -1.89204
C          3.57006        25.03437        -1.39790
C          2.30335        25.75957        -1.14934
C          3.46966        27.66596        -0.08226
C          2.25156        26.87002        -0.27096
C          3.47507        28.72829         0.94829
C          2.19710        29.08843         1.53384
C          6.65998         4.73606         3.54595
C          5.39167         5.32258         3.25263
C          6.22720         6.03195         1.11832
C          5.19961         6.08444         2.01455
C          6.11075         7.89349        -0.03942
C          4.90464         8.58586         0.13220
C          6.20843        10.67171        -0.27543
C          5.01051        10.02105        -0.13457
C          6.16667        12.14173        -0.66136
C          5.01882        12.85065         0.08820
C          6.19139        14.97855        -0.79861
C          4.97502        14.33910        -0.26151
C          6.02970        16.27182        -1.57124
C          4.80699        17.08520        -1.22784
C          6.03375        19.19705        -1.58262
C          4.83192        18.51821        -1.39704
C          5.99449        20.67977        -1.97516
C          4.86497        21.39744        -1.22521
C          6.05656        23.57111        -1.44440
C          4.81673        22.89334        -1.51707
C          6.09812        25.08285        -1.48383
C          4.76370        25.69104        -1.10483
C          6.03819        27.74940        -0.18220
C          4.76387        27.09938        -0.64160
C          5.94737        28.95852         0.78314
C          4.63527        29.33486         1.33058
C          9.05277         4.43147         3.04466
C          7.76245         4.87510         2.71136
C          8.66796         6.70567         1.31146
C          7.62209         5.54252         1.36704
C          8.58710         7.67064         0.12194
C          7.42179         8.45046        -0.15383
C          8.66932        10.74572        -0.59491
C          7.50204         9.98160        -0.01925
C          8.69741        12.20208        -0.53580
C          7.48259        12.88398        -0.51866
C          8.62961        14.94026        -1.24742
C          7.42998        14.29407        -0.82602
C          8.54944        16.30760        -1.87255
C          7.29148        17.07437        -1.57189
C          8.53790        19.18241        -1.38450
C          7.26734        18.44481        -1.57836
C          8.58094        20.64778        -1.61529
C          7.31879        21.42260        -1.79216
C          8.49929        23.52042        -1.08640
C          7.29384        22.86561        -1.42063
C          8.48037        24.89804        -0.70780
C          7.31150        25.65481        -0.75513
C          8.43791        27.57469         0.35074
C          7.29609        26.98516        -0.18898
C          8.37954        28.75177         1.18623
C          7.14433        29.30479         1.53251
C         11.42372         4.27260         2.47418
C         10.18384         4.92514         2.34594
C         11.20560         6.72328         1.01211
C         10.06189         6.10665         1.50056
C         11.12318         7.79152         0.04346
C          9.83692         8.08309        -0.41064
C         11.13865        10.71307        -0.61661
C          9.81210        10.14440        -1.01617
C         11.16347        12.15984        -1.05260
C          9.93311        12.87759        -0.87095
C         11.08432        14.88052        -1.70068
C          9.88146        14.25239        -1.25071
C         11.02251        16.31812        -1.99893
C          9.81782        17.03094        -1.59840
C         11.12385        19.22084        -1.60147
C          9.85995        18.46318        -1.41441
C         11.11388        20.60458        -1.31622
C          9.81408        21.28154        -1.05259
C         11.07097        23.43649        -0.81407
C          9.76423        22.75575        -0.85753
C         11.02289        24.86844        -0.54584
C          9.71569        25.45744        -0.02849
C         10.94869        27.46058         0.81486
C          9.77798        26.99720        -0.03577
C         10.83694        28.67095         1.58774
C          9.57400        29.27751         1.76012
C         13.73419         4.00443         1.69173
C         12.58762         4.77339         1.84857
C         13.73657         6.72785         0.67038
C         12.53613         6.16475         1.33763
C         13.58391         7.66208        -0.51564
C         12.31520         8.48815        -0.50421
C         13.61997        10.59285        -1.10480
C         12.32393         9.80940        -0.90129
C         13.45517        11.86124        -1.99843
C         12.31836        12.76301        -1.52882
C         13.51224        14.87053        -2.16024
C         12.31876        14.18099        -1.80338
C         13.53287        16.30928        -2.39187
C         12.27541        17.10915        -2.26382
C         13.58191        19.23115        -1.75738
C         12.32586        18.54601        -1.89610
C         13.55580        20.63254        -1.42632
C         12.33330        21.32595        -1.24385
C         13.48758        23.41722        -0.43530
C         12.28424        22.75870        -0.90673
C         13.45339        24.65890         0.16575
C         12.28938        25.52003         0.00452
C         13.30509        27.25669         1.49611
C         12.15036        26.76429         0.80173
C         13.23358        28.54364         2.13539
C         11.99229        29.21241         2.19438
C         16.09544         3.80943         1.12831
C         14.90935         4.48858         1.02607
C         16.14151         6.42065        -0.06679
C         14.81493         5.76669         0.23394
C         16.05517         7.73111        -0.71485
C         14.87133         8.40283        -0.82774
C         16.07034        10.54645        -1.44507
C         14.79279         9.71961        -1.59351
C         16.07687        11.96796        -1.88803
C         14.78420        12.62995        -2.19283
C         16.06364        14.88089        -2.09268
C         14.79069        14.14283        -2.33253
C         16.07433        16.27234        -1.93935
C         14.85950        17.08216        -2.20581
C         16.10282        19.14779        -1.56281
C         14.80975        18.49970        -1.83850
C         16.12571        20.61635        -1.18082
C         14.82737        21.37147        -1.23653
C         15.96766        23.18847         0.17487
C         14.79518        22.73094        -0.60490
C         15.93391        24.65362         0.56617
C         14.55523        25.06187         1.11622
C         15.66773        27.07763         2.11059
C         14.51963        26.52336         1.52602
C         15.61658        28.38666         2.70895
C         14.40252        29.08815         2.72436
C         18.57529         3.62825         0.47871
C         17.42060         4.49389         0.93230
C         18.58768         6.22126        -0.58369
C         17.31794         5.75383         0.09813
C         18.58188         7.72436        -0.75969
C         17.30627         8.29044        -1.35898
C         18.60447        10.42977        -1.82188
C         17.34750         9.80318        -1.31141
C         18.55271        11.92141        -2.12322
C         17.26158        12.66096        -2.00277
C         18.52205        14.78186        -1.96585
C         17.30228        14.12085        -2.04296
C         18.54651        16.23563        -1.77697
C         17.28741        16.97220        -1.63222
C         18.46562        18.96802        -0.72253
C         17.30218        18.33077        -1.27892
C         18.39826        20.31305        -0.18562
C         17.21977        21.10514        -0.32698
C         18.20188        22.83882         1.19771
C         17.08582        22.38190         0.32465
C         18.17562        24.23658         1.78793
C         17.00340        25.10139         1.53200
C         18.04289        26.75463         3.05603
C         16.89645        26.29919         2.17551
C         17.99424        28.23604         3.39174
C         16.79558        28.94579         3.29306
C         19.74290         4.19511         0.14302
C         21.07719         6.28009        -0.53711
C         19.85261         5.70399         0.14291
C         21.10222         7.55537        -0.96489
C         19.89392         8.42355        -0.94597
C         21.04464        10.48770        -1.82877
C         19.90361         9.78165        -1.55879
C         21.00372        11.89441        -2.11166
C         19.84138        12.61803        -2.11328
C         20.87064        14.66452        -1.13952
C         19.88173        14.12716        -2.16165
C         20.84539        15.93540        -0.71303
C         19.80255        16.88290        -1.16611
C         20.73501        18.74492         0.18659
C         19.65650        18.20687        -0.53405
C         20.68171        20.03895         0.68407
C         19.54093        20.84031         0.50880
C         20.62620        22.80144         1.60430
C         19.51047        22.17262         1.08764
C         20.60068        24.14231         2.10089
C         19.44847        24.87923         2.15658
C         20.53148        26.90938         3.27026
C         19.39777        26.37432         2.42779
C         20.38928        28.09586         3.93061
C         19.15837        28.81535         3.91542
O         13.50358         7.11602         2.02102
O          8.22133        21.12961        -2.94242
O          3.45931         6.50319         0.29493
O          4.32538        15.05523         0.86602
O         13.45507         6.61977        -1.57757
O         17.80367        23.05890         2.59768
O          9.63216        21.80794         0.30411
O          1.11140        24.62198        -2.90994
O          9.17077        18.86043        -0.10920
O         19.56445        16.92383        -2.60858
O         14.31283        16.76392        -3.53711
O         14.26146         5.43797        -1.12355
O         11.39539        16.75920        -3.39441
O         19.14163         8.46526         0.35628
O          2.82912        10.05821        -1.11214
O          9.76130         8.86851        -1.57296
O         11.87024        25.68083        -1.40725
O         16.73469        10.38559        -0.12243
O         15.01672        22.57524        -2.07043
O         18.46160        10.90412        -3.19267
O         16.49243        20.20347        -2.53725
O          6.15300        29.10785        -0.67295
O          6.04711         6.49041        -0.19538
O          3.96963        28.03874        -1.42483
O         14.81819        13.25279        -3.52880
O         11.08639        10.77848         0.85599
H         11.98327        11.06409         1.14742
O          7.95409         4.58958         0.33428
H          7.49878         4.88021        -0.48620
O          5.82004        12.22814        -2.07225
H          6.54383        11.82477        -2.59527
O         18.60963         5.62066        -1.90120
H         17.98067         6.12176        -2.47447
O         14.67003         9.35269        -2.98499
H         14.03492         9.97953        -3.42425
O         13.96522        11.10307         0.21452
H         14.64025        10.51623         0.62315
O          5.29204        12.72590         1.49802
H          4.83271        13.48188         1.93422
O          5.66255        20.71817        -3.37659
H          6.50658        20.65630        -3.87909
O         17.96414        26.03570         4.31242
H         17.06119        26.14571         4.67504
O          8.47508        16.09157        -3.36160
H          9.39555        16.07457        -3.71233
O         13.04293        11.40544        -3.31601
H         13.33535        12.10838        -3.94861
O         14.36052        24.28920         2.33622
H         13.51854        24.57259         2.74987
O         19.88134         6.15722         1.50881
H         19.77762         7.13893         1.49186
O          7.72991        10.09639         1.45468
H          7.51207        11.01827         1.71869
O          5.78384        15.81085        -2.95249
H          6.66535        15.71513        -3.39212
O         19.45811        27.04223         1.13598
H         20.32990        26.85335         0.73113
O          6.29466        25.44734        -2.89859
H          6.25537        26.42616        -2.96219
O         16.16582        25.38549        -0.66850
H         15.71096        24.91738        -1.40204
O         17.72714         4.90795         2.30608
H         17.13574         5.65337         2.54109
O         17.26782         7.88725        -2.75276
H         16.41383         8.20546        -3.13489
O          9.97889        27.48305        -1.38397
H         10.83097        27.10902        -1.71827
O          5.20854        21.28754         0.18941
H          4.44726        21.60797         0.71646
O          9.63554        25.05071         1.36907
H          9.45120        24.08608         1.39658
O         20.36303        14.49228        -3.48140
H         20.27733        15.47510        -3.55141
O          8.41243         7.53812         2.47491
H          8.32888         8.48730         2.20415
H          2.14094         4.52604         5.48235
H         -0.16350         5.42971         5.08524
H         -0.52115         7.12946         3.33733
H         -0.50862         8.86503         2.67408
H         -0.66098        11.05540         1.60719
H         -0.98160        12.31066        -0.21521
H         -1.00672        14.69799        -0.74302
H         -1.02570        16.59554        -0.87328
H         -1.05165        18.97513        -1.35711
H         -0.95164        20.65049        -2.40166
H         -0.84711        23.03309        -3.13272
H         -1.06340        25.68521        -1.90612
H         -1.14488        27.31719         0.00905
H          0.07946        28.82062         1.56915
H          4.44256         4.40838         4.95306
H          2.18234        29.90215         2.27346
H          6.77226         4.19928         4.50024
H          4.61465        30.09301         2.12848
H          9.20091         3.74188         3.88952
H          7.07907        30.05067         2.33860
H         11.46674         3.30135         2.98933
H          9.50095        30.18156         2.38296
H         13.77044         3.00107         2.14265
H         11.91888        30.16685         2.73609
H         16.11065         2.87625         1.71521
H         14.35111        30.07422         3.20867
H         18.45174         2.53477         0.48475
H         16.75822        29.98733         3.64929
H         20.60579         3.58295        -0.16158
H         21.99178         5.66944        -0.59434
H         22.02050         7.96823        -1.40867
H         22.03101        10.01977        -1.70135
H         21.96500        12.41837        -2.20878
H         21.65748        13.98991        -0.76988
H         21.58147        16.26940         0.03204
H         21.65462        18.16318         0.32746
H         21.55272        20.42791         1.22610
H         21.60694        22.30861         1.56331
H         21.56331        24.59174         2.38538
H         21.50956        26.40610         3.25896
H         21.24893        28.53416         4.45929
H         19.12936        29.84517         4.30136
