         204
 CSIRO Nanostructure Databank - Neutral Graphene Oxide Data Set
C        -11.09878         0.61841         0.73130
C         -9.81378         1.34158         1.03020
C         -8.60899         0.64093         0.45282
C         -7.38547         1.37661         0.31978
C         -6.17054         0.66830        -0.03692
C         -4.93222         1.41491        -0.18954
C         -3.69799         0.68390        -0.42737
C         -2.44190         1.41560        -0.43810
C         -1.21302         0.72183        -0.64236
C          0.01904         1.43985        -0.79235
C          1.22966         0.71684        -0.90984
C          2.50777         1.42771        -1.07718
C          3.74623         0.70887        -0.77530
C          4.95542         1.48092        -0.49102
C          6.25671         0.74624        -0.40858
C          7.55149         1.49397        -0.67783
C          8.72618         0.72944        -0.09085
C          9.89096         1.47680         0.32601
C         11.06797         0.73037         0.70742
C         -9.82481         2.81149         0.72572
C         -8.62549         3.50536         0.59334
C         -7.38126         2.76654         0.46920
C         -6.07922         3.49243         0.64018
C         -4.88999         2.78267         0.04796
C         -3.66945         3.52443        -0.08870
C         -2.44216         2.82956        -0.33438
C         -1.21099         3.56036        -0.42388
C          0.02168         2.88032        -0.67131
C          1.23285         3.62021        -0.69747
C          2.50955         2.95386        -0.99607
C          3.77370         3.65976        -0.67443
C          4.97791         2.95189        -0.57335
C          6.22090         3.62797        -0.30275
C          7.45225         2.93214        -0.22370
C          8.63777         3.61344         0.16689
C          9.85241         2.86296         0.38702
C         -8.58906         4.93314         0.53113
C         -7.37972         5.65549         0.38361
C         -6.13201         4.95895         0.31147
C         -4.92733         5.65749         0.15312
C         -3.67562         4.94136         0.01346
C         -2.45781         5.66894        -0.08224
C         -1.22028         4.97577        -0.26447
C          0.00696         5.70677        -0.28058
C          1.24279         5.01769        -0.45464
C          2.48039         5.75872        -0.43754
C          3.73908         5.06572        -0.49223
C          4.96902         5.76836        -0.22533
C          6.19218         5.04255        -0.09499
C          7.39808         5.73836         0.23620
C          8.59912         5.00120         0.39286
C         -7.37341         7.07718         0.31464
C         -6.17419         7.79324         0.22579
C         -4.92974         7.08810         0.13691
C         -3.70275         7.80344         0.09542
C         -2.46462         7.09755         0.00610
C         -1.23991         7.82006         0.00022
C         -0.00052         7.12380        -0.12042
C          1.22993         7.84651        -0.11396
C          2.45408         7.16156        -0.27551
C          3.72991         7.94842        -0.45837
C          4.96454         7.17164        -0.07477
C          6.15915         7.85980         0.26397
C          7.35196         7.14520         0.43047
C         -6.14699         9.23398         0.24037
C         -4.96580         9.92094         0.21868
C         -3.70182         9.23448         0.16070
C         -2.48280         9.93032         0.18400
C         -1.24767         9.24871         0.11868
C         -0.00275         9.94382         0.19430
C          1.21147         9.27624         0.09786
C          2.47039         9.96411         0.29316
C          3.67437         9.33144         0.14231
C          4.92838         9.98151         0.45015
C          6.10489         9.29743         0.48046
C        -11.11168        -0.70502         0.47420
C         -9.88028        -1.47080         0.32918
C         -8.63397        -0.73568         0.24521
C         -7.42593        -1.44199        -0.09358
C         -6.20753        -0.70593        -0.25686
C         -5.00666        -1.41099        -0.84833
C         -3.71684        -0.69306        -0.56208
C         -2.45526        -1.46070        -0.30842
C         -1.20430        -0.70278        -0.69812
C         -0.00562        -1.38878        -0.85693
C          1.24822        -0.69869        -0.86905
C          2.49767        -1.41178        -0.75266
C          3.74307        -0.69614        -0.66833
C          4.97063        -1.43954        -0.56803
C          6.24479        -0.71368        -0.70449
C          7.54719        -1.44297        -0.47989
C          8.72626        -0.65311        -0.05025
C          9.88747        -1.39280         0.40125
C         11.06688        -0.63293         0.74402
C         -9.87892        -2.84461         0.21297
C         -8.66550        -3.58396        -0.00404
C         -7.44181        -2.84876        -0.21739
C         -6.21464        -3.56209        -0.47786
C         -4.99593        -2.90424        -0.59743
C         -3.75195        -3.64257        -0.67808
C         -2.48344        -2.91829        -0.70340
C         -1.29339        -3.59705        -0.78776
C         -0.02464        -2.85577        -0.95805
C          1.26895        -3.58114        -0.76233
C          2.52782        -2.81885        -0.59558
C          3.73086        -3.52103        -0.42187
C          4.98526        -2.83937        -0.45053
C          6.24525        -3.56945        -0.26043
C          7.47697        -2.87729        -0.16520
C          8.66241        -3.54948         0.24054
C          9.85819        -2.77931         0.48211
C         -8.67178        -4.98657         0.02798
C         -7.50112        -5.75401        -0.21742
C         -6.29294        -5.02477        -0.64738
C         -4.99076        -5.79750        -0.76174
C         -3.74338        -5.02865        -0.68250
C         -2.49108        -5.82892        -0.92204
C         -1.23342        -5.04869        -0.66799
C         -0.08946        -5.67943        -0.27106
C          1.16954        -4.92587        -0.13359
C          2.43741        -5.65670         0.14545
C          3.70319        -4.99833        -0.31164
C          4.99022        -5.73078        -0.12865
C          6.24829        -4.96870        -0.04161
C          7.44101        -5.67872         0.26131
C          8.63652        -4.95059         0.41763
C         -7.44861        -7.14214        -0.10053
C         -6.22016        -7.88081        -0.16331
C         -4.98876        -7.22720        -0.39678
C         -3.75485        -7.91219        -0.21610
C         -2.51063        -7.21030        -0.29576
C         -1.33047        -7.85533         0.04779
C         -0.10296        -7.04926         0.36867
C          1.20372        -7.81075         0.26963
C          2.39150        -7.13304         0.26637
C          3.65698        -7.81856         0.60026
C          4.96073        -7.08636         0.50057
C          6.23489        -7.84342         0.48535
C          7.40973        -7.13021         0.40206
C         -6.19613        -9.28322         0.13356
C         -5.01179        -9.96762         0.26332
C         -3.75194        -9.29963         0.13645
C         -2.52023        -9.96656         0.33529
C         -1.30586        -9.26144         0.32169
C         -0.03592        -9.92277         0.51182
C          1.18181        -9.25774         0.45359
C          2.44561        -9.95621         0.56407
C          3.65548        -9.29436         0.62432
C          4.94192        -9.94723         0.70167
C          6.13822        -9.27611         0.64312
O         -5.17877        -1.29519        -2.31582
H         -5.95942        -1.83663        -2.56216
O          3.85019         8.17010        -1.91601
H          3.89818         7.28737        -2.34172
O         -9.65260         1.26092         2.50670
H         -8.76795         1.63132         2.71559
O         -5.83415         3.45653         2.11403
H         -6.49657         4.05250         2.52588
O         -0.23295        -6.76554         1.80855
H          0.50754        -6.15114         2.04039
O          2.55623         2.27150        -2.29677
O          0.72582        -3.43604        -2.10395
O          7.06683        -1.10720        -1.85347
O         -2.49489        -6.08404        -2.37427
H         -3.42192        -6.25525        -2.64888
O          4.28265        -7.16806         1.79584
O         -2.37727        -1.52794         1.17986
H         -2.40197        -0.60606         1.51689
O          7.73781         1.53007        -2.12214
H          7.71467         0.59198        -2.43560
O          1.75611        -4.92754         1.23197
O         -5.79394        -5.47878        -1.96147
O          4.32712        -5.69318        -1.44893
O          5.60030         1.04808         0.84091
H         11.96921        -1.17996         1.05453
H         11.97172         1.29032         0.99007
H         10.75191         3.41265         0.70356
H          9.51872         5.52785         0.68871
H          8.27366         7.68048         0.70333
H          7.04082         9.81790         0.73147
H          4.90858        11.05360         0.69892
H          2.44092        11.00984         0.63778
H         -0.01281        11.03401         0.34404
H         -2.48811        11.02815         0.25917
H         -4.96439        11.02051         0.24904
H         -7.10263         9.77638         0.28984
H         -8.32875         7.61983         0.37231
H         -9.53705         5.48760         0.59196
H        -10.76761         3.36991         0.82926
H        -12.04198         1.17708         0.82788
H        -12.06563        -1.23699         0.33645
H        -10.82483        -3.40121         0.29425
H         -9.60959        -5.50990         0.26877
H         -8.36696        -7.68904         0.16297
H         -7.15232        -9.80686         0.27946
H         -5.02021       -11.04049         0.50568
H         -2.52085       -11.04700         0.54479
H         -0.04208       -11.01152         0.67666
H          2.42744       -11.05662         0.60630
H          4.95210       -11.04401         0.79409
H          7.07539        -9.85070         0.69634
H          8.37345        -7.65896         0.46298
H          9.56347        -5.47741         0.68824
H         10.76376        -3.31541         0.80376
