         410
 CSIRO Nanostructure Databank - Neutral Graphene Oxide Data Set
C         27.89948        27.57022        -1.39709
C         27.84997        28.91381        -0.92568
C         26.71960        29.75964        -1.11955
C         27.85569        31.67336        -0.07658
C         26.73348        31.08077        -0.67509
C         27.91113        33.07227         0.24192
C         26.72858        33.84407         0.36947
C         28.03475        35.84917         0.81343
C         26.79322        35.20087         0.61729
C         28.02104        37.35758         0.91454
C         26.99250        37.93684         1.85766
C         28.22615        40.05925         1.87785
C         27.06271        39.23922         2.20439
C         28.22912        41.48166         2.05097
C         27.02380        42.20942         2.29683
C         28.20188        44.33598         2.07919
C         27.00881        43.58313         2.30161
C         28.17062        45.74919         1.95663
C         30.17295        27.28101        -0.57287
C         29.03896        26.78611        -1.26649
C         30.01078        28.54199         0.03696
C         28.96751        29.42230        -0.20943
C         30.28937        31.60018        -0.49585
C         29.10848        30.87454         0.22305
C         30.38656        33.05494        -0.03802
C         29.17951        33.72991         0.38349
C         30.56543        35.73858         1.02057
C         29.22098        35.11371         0.71420
C         30.53205        37.25821         1.00886
C         29.37702        37.97212         1.16408
C         30.63192        40.11756         1.38970
C         29.39901        39.39870         1.45695
C         30.65237        41.50846         1.65020
C         29.45313        42.21190         1.91298
C         30.62890        44.41755         1.72682
C         29.44532        43.65689         1.94524
C         30.57278        45.81399         1.51551
C         29.31227        46.46051         1.64801
C         32.80161        24.54704        -0.65390
C         31.57544        25.25619        -0.65839
C         32.74791        27.41761        -0.82012
C         31.49107        26.63748        -0.58943
C         32.94980        28.85809        -0.57733
C         31.91174        29.64495         0.00166
C         32.77704        31.59978        -1.10422
C         31.66238        30.92670        -0.43135
C         32.71689        33.13566        -0.94995
C         31.56016        33.76775        -0.26672
C         32.82271        35.86985        -0.10543
C         31.68457        35.14900         0.16883
C         33.02635        37.24439         0.41807
C         31.82780        37.95904         1.04160
C         33.04535        40.13481         0.85860
C         31.84769        39.42661         1.10093
C         33.11846        41.54530         1.09942
C         31.94655        42.20252         1.68430
C         33.13470        44.46283         1.27665
C         31.93681        43.74829         1.73931
C         33.04996        45.89426         1.07848
C         31.78679        46.55479         1.18189
C         32.87044        48.65189         0.53392
C         31.73907        47.93742         0.89517
C         35.35187        23.12483        -0.16031
C         35.28109        24.48796        -0.43711
C         34.03815        25.17937        -0.70561
C         35.34484        27.38066        -0.97286
C         34.07245        26.62179        -1.00506
C         35.34369        28.79208        -1.15323
C         34.11503        29.52901        -1.02487
C         35.30113        31.69070        -1.41451
C         34.10866        30.95231        -1.17216
C         35.16527        33.16873        -1.49995
C         33.99549        33.82240        -1.07093
C         35.14631        36.09986        -1.17340
C         33.90320        35.28916        -0.94155
C         35.28765        37.46408        -0.65054
C         34.14750        38.09407        -0.04490
C         35.29661        40.28081        -0.17767
C         34.16712        39.45446         0.26877
C         35.43901        41.66642         0.28479
C         34.28802        42.30474         0.84484
C         35.56821        44.45260         0.79685
C         34.29583        43.73796         1.00589
C         35.52411        45.98504         0.68988
C         34.20752        46.64101         0.72563
C         35.35486        48.78157         0.16558
C         34.13646        48.02730         0.45131
C         35.35387        50.19324         0.16302
C         37.80037        23.00788        -0.38294
C         36.57072        22.40717        -0.14661
C         37.85360        24.48826        -0.39277
C         36.52782        25.26034        -0.44470
C         37.77851        27.35094        -1.09896
C         36.55436        26.66644        -0.92260
C         37.77577        28.75650        -1.10789
C         36.56660        29.52437        -1.16980
C         37.85829        31.62063        -1.22156
C         36.56642        30.97299        -1.31357
C         38.15149        32.89021        -1.72411
C         36.24655        34.02872        -1.92632
C         37.54992        36.16213        -1.73846
C         36.34929        35.38969        -1.62538
C         37.73063        37.41429        -1.13647
C         36.52095        38.10443        -0.74929
C         37.84079        40.24562        -0.59387
C         36.55156        39.56131        -0.66410
C         37.84302        41.64297        -0.39190
C         36.64579        42.35218         0.00396
C         37.87416        44.49740        -0.14358
C         36.72179        43.76062         0.21456
C         37.81235        45.93906        -0.24900
C         36.65883        46.66369         0.03735
C         37.76283        48.86157        -0.33726
C         36.58660        48.10682        -0.09143
C         37.75592        50.27716        -0.25342
C         36.51825        50.92288        -0.02250
C         40.33182        20.20679        -0.64139
C         39.11831        20.84439        -0.42058
C         40.18815        22.94154        -1.01616
C         39.02302        22.24360        -0.59658
C         39.98525        24.29042        -1.46190
C         39.00519        25.13894        -1.04379
C         40.36562        27.33164        -1.06337
C         39.05617        26.60700        -1.46558
C         40.31888        28.68027        -0.69986
C         39.02603        29.39944        -0.66794
C         40.30298        31.59098        -0.46102
C         39.00330        30.91304        -0.59253
C         40.32842        33.00060        -0.59040
C         39.27266        33.66564        -1.28036
C         40.33644        35.87053        -0.79065
C         39.42243        35.05671        -1.50430
C         40.25084        37.32896        -0.73253
C         39.03416        38.05440        -0.92777
C         40.27436        40.19918        -0.64277
C         39.03511        39.48688        -0.71808
C         40.27369        41.63016        -0.63464
C         39.07935        42.36082        -0.50217
C         40.30249        44.52737        -0.66480
C         39.08298        43.80343        -0.47850
C         40.30472        45.95219        -0.69883
C         39.00539        46.63624        -0.76209
C         40.29411        48.83315        -0.56856
C         39.00111        48.16607        -0.74109
C         40.26442        50.25831        -0.23553
C         39.00636        51.01858        -0.34037
C         40.28579        53.10478        -0.63129
C         39.07370        52.40527        -0.42746
C         42.77693        20.21370        -0.98447
C         41.51883        20.93119        -0.88420
C         42.75353        23.09974        -0.91355
C         41.49282        22.34918        -1.02034
C         42.90942        24.49465        -0.96520
C         41.86660        25.35294        -1.46571
C         42.92725        27.42155        -0.83781
C         41.64246        26.66067        -1.05341
C         42.75814        28.76181        -0.19941
C         41.51412        29.41630        -0.31569
C         42.69587        31.54317         0.09968
C         41.47125        30.84487        -0.15099
C         42.69709        33.01967         0.03077
C         41.44855        33.76763        -0.17654
C         42.50878        35.92843         0.49444
C         41.41520        35.16906        -0.16032
C         42.58273        37.38124         0.27233
C         41.44702        38.05527        -0.31938
C         42.71421        40.23399        -0.09442
C         41.47440        39.46145        -0.46281
C         42.82103        41.59319        -0.80788
C         41.53986        42.35650        -0.86127
C         42.74387        44.55942        -0.67547
C         41.55207        43.83829        -0.75623
C         42.75521        45.98898        -0.71472
C         41.50581        46.68861        -0.76100
C         42.76747        48.84760        -0.74857
C         41.50317        48.13920        -0.68600
C         42.79605        50.26584        -0.79677
C         41.60031        51.02671        -0.41566
C         42.71375        53.09660        -1.16814
C         41.51443        52.45343        -0.73608
C         43.94534        20.86244        -0.80615
C         45.19318        22.99294        -0.00851
C         43.92348        22.29740        -0.43687
C         45.24204        24.47377        -0.04215
C         44.08474        25.19080        -0.43381
C         45.22541        27.28774         0.15000
C         44.07758        26.59818        -0.31266
C         45.19199        28.72099         0.31401
C         43.94386        29.43999         0.18377
C         45.20460        31.60681         0.39450
C         43.89073        30.85763         0.32300
C         45.06872        33.00441         0.96542
C         43.90665        33.77013         0.44217
C         45.06207        35.91765         0.97886
C         43.78347        35.19334         0.86195
C         45.01092        37.33155         0.97959
C         43.80813        38.05079         0.57072
C         45.20457        39.86269        -0.36099
C         43.94594        39.36429         0.02264
C         45.26381        41.89054        -1.03925
C         44.06544        42.42562        -0.69403
C         45.27507        44.59825        -0.67145
C         44.02027        43.86114        -0.26729
C         45.25152        45.99733        -0.78351
C         43.99130        46.70591        -0.76501
C         45.22592        48.83798        -1.08300
C         43.99389        48.12655        -0.87211
C         45.21225        50.24969        -1.27282
C         43.97151        50.97532        -1.14173
C         43.89100        52.39812        -1.31378
C         47.62218        22.93971         0.37757
C         46.50163        22.29516         0.01239
C         47.60214        24.37228         0.75646
C         46.40683        25.15186         0.36620
C         47.65447        27.28492         0.71815
C         46.42538        26.56911         0.44914
C         47.62257        28.71470         0.80067
C         46.38431        29.38910         0.68405
C         47.61036        31.60189         1.28840
C         46.31309        30.81460         1.03842
C         47.59982        33.07289         1.18019
C         46.32970        33.78866         1.26816
C         47.54628        35.96597         1.03175
C         46.29535        35.25403         1.08348
C         47.53024        37.41194         1.05250
C         46.25737        37.97025         1.25544
C         47.65801        40.39295         0.10637
C         46.37555        39.84733         0.39488
C         47.71518        41.74997        -0.39019
C         46.54379        42.48156        -0.73569
C         47.74407        44.60523        -0.71253
C         46.51406        43.90397        -0.70188
C         47.72490        46.01555        -0.87735
C         46.48443        46.71097        -0.94013
C         47.70089        48.82250        -1.33118
C         46.47340        48.12988        -1.12195
C         47.64333        50.22397        -1.55302
C         46.44589        50.90886        -1.53027
C         50.21214        24.47249         0.84722
C         48.91311        25.14313         0.97792
C         50.12969        27.32919         0.80527
C         48.89111        26.60889         0.82548
C         50.11769        28.76660         0.79635
C         48.85471        29.46983         0.88521
C         50.02337        31.66806         0.70008
C         48.84132        30.86684         1.00462
C         50.02725        33.11497         0.92988
C         48.79924        33.81369         1.04259
C         50.02313        36.02801         1.32154
C         48.76014        35.25892         1.04569
C         49.96139        37.50588         0.98147
C         48.76816        38.22175         0.93309
C         50.04124        40.39855         0.59240
C         48.81616        39.69181         0.61179
C         50.12669        41.79690         0.18621
C         48.94262        42.47338        -0.25551
C         50.18836        44.58760        -0.55975
C         48.96015        43.87678        -0.52852
C         50.19462        45.98319        -0.89767
C         48.96686        46.71012        -1.02065
C         50.21292        48.73900        -1.51047
C         48.96125        48.10435        -1.29578
C         51.35910        25.18895         0.74121
C         52.60871        27.35735         0.80783
C         51.37198        26.63261         0.77532
C         52.58155        28.78532         0.86929
C         51.33870        29.47199         0.81036
C         52.59196        31.69549         0.94858
C         51.36609        30.93311         0.62509
C         52.57047        33.13125         0.90244
C         51.28430        33.84251         0.68025
C         52.54916        36.07365         0.89729
C         51.26275        35.34713         0.75782
C         52.55064        37.46800         0.97088
C         51.25840        38.19897         1.13186
C         52.59170        40.41192         0.96288
C         51.26706        39.70651         1.04052
C         52.59405        41.88312         0.68338
C         51.34359        42.53943         0.21605
C         52.63003        44.60919        -0.43536
C         51.39709        43.89772        -0.23895
C         52.66022        45.90686        -0.97355
C         51.42910        46.65224        -1.11737
C         51.40036        48.03349        -1.44173
C         55.05123        27.43513         0.84140
C         53.87939        26.71106         0.77890
C         55.03702        28.84840         0.96873
C         53.79969        29.53400         0.97429
C         55.00885        31.64900         1.54007
C         53.76865        30.96599         1.15362
C         54.99274        33.22046         1.46139
C         53.74371        33.87939         1.04909
C         54.99721        36.01175         0.83606
C         53.76657        35.32046         0.88993
C         55.00361        37.44059         0.71634
C         53.78879        38.18987         0.83931
C         55.04530        40.28061         0.44757
C         53.83520        39.61983         0.75646
C         55.11568        41.72257         0.22004
C         53.91497        42.54582         0.42161
C         55.14827        44.47269        -0.73609
C         53.91806        43.96962        -0.10891
C         55.09649        45.77148        -1.33499
C         53.92243        46.47522        -1.38436
C         56.26955        29.58245         1.12456
C         56.26934        30.90636         1.42336
C         56.24500        33.95203         1.26184
C         56.23139        35.26483         0.92247
C         56.21771        38.14203         0.48740
C         56.23250        39.50494         0.32921
C         56.27455        42.35929        -0.20884
C         56.29873        43.70130        -0.66413
O         38.82898        47.41242        -1.99495
O         45.39329        33.26364         2.33040
O         50.67787        31.33914        -0.59739
O         32.40402        32.45037        -2.23140
O         41.08952        50.65047         0.90403
O         46.74275        31.09464         2.37908
O         54.90535        32.49034         2.72667
O         40.95810        24.76707        -2.35665
O         43.71376        33.55116        -0.99540
O         45.24886        40.58507        -1.56452
O         38.61248        35.64037        -2.48537
O         42.19083        41.76767        -2.09639
O         32.84888        37.30279         1.89015
O         35.59953        40.16286        -1.61355
O         31.04915        28.97837         0.87286
O         51.16256        34.70798        -0.54424
O         54.10368        43.68281         1.32428
O         46.23875        39.30090         1.68126
O         34.07544        36.01936        -2.21383
O         33.26873        27.03726        -2.14558
O         35.91069        45.31773         1.93562
O         32.18398        42.93398         2.93099
O         51.18057        39.04230         2.34800
O         48.09073        24.64389         2.10437
O         42.78324        35.47339         1.88145
O         37.31484        25.13008         0.79825
O         37.28133        33.44851        -2.67053
O         38.72317        30.10630         0.59936
O         52.61469        41.38752         2.06954
O         44.23872        22.48793         1.00349
O         27.62448        37.80665        -0.42865
H         27.57531        38.78615        -0.40581
O         30.87961        35.38177         2.40335
H         31.70011        35.88032         2.63679
O         43.99831        43.88623         1.20678
H         44.01828        44.82564         1.48782
O         43.34455        27.75389        -2.23181
H         42.66545        28.35643        -2.60472
O         50.24410        35.97233         2.77564
H         49.65272        36.62838         3.20238
O         29.37771        30.95352         1.63883
H         28.67839        30.46353         2.11736
O         39.04900        26.63387        -2.92737
H         39.80021        26.06636        -3.22304
O         45.66436        31.76104        -0.98123
H         44.99127        32.31860        -1.44900
O         29.91270        31.61338        -1.89111
H         30.65864        32.02461        -2.39661
O         42.51554        40.64653         1.31132
H         42.47341        39.83744         1.86522
H         27.03228        27.17360        -1.94448
H         25.83383        29.36698        -1.63824
H         25.84574        31.70011        -0.87115
H         25.74711        33.36122         0.26629
H         25.86561        35.78791         0.66509
H         26.12491        37.33078         2.15690
H         26.26305        39.68297         2.81515
H         26.08061        41.66290         2.43377
H         26.06165        44.12311         2.44510
H         27.21174        46.27439         2.07375
H         29.07576        25.79625        -1.74301
H         29.23532        47.54880         1.52616
H         32.75294        23.45726        -0.52376
H         30.64836        24.66892        -0.59037
H         32.76563        49.72226         0.31267
H         30.78398        48.47625         0.94661
H         34.42548        22.54281        -0.06081
H         34.42173        50.74084         0.35606
H         36.51210        21.31397        -0.04795
H         36.47250        52.01873         0.03242
H         40.39524        19.11318        -0.54542
H         38.23857        20.25475        -0.13036
H         40.24214        54.19003        -0.80410
H         38.14413        52.99176        -0.43989
H         42.75134        19.12860        -1.16261
H         42.69114        54.17781        -1.36833
H         44.89666        20.31309        -0.81612
H         44.79023        52.95233        -1.61454
H         48.56853        22.38558         0.45354
H         46.54044        21.21864        -0.20698
H         48.56752        50.78890        -1.73493
H         46.46114        51.99446        -1.69514
H         50.25555        23.37584         0.89251
H         50.25436        49.81283        -1.73781
H         52.31072        24.64594         0.66828
H         52.34041        48.57580        -1.61072
H         56.01904        26.91362         0.82237
H         53.94106        25.61735         0.70794
H         56.02253        46.21086        -1.73359
H         53.93079        47.48072        -1.82592
H         57.21795        29.02852         1.06591
H         57.21435        31.42330         1.63861
H         57.20100        33.44102         1.43848
H         57.19139        35.78350         0.80482
H         57.16461        37.59618         0.39388
H         57.19188        39.99475         0.12280
H         57.21449        41.79775        -0.29184
H         57.24414        44.10650        -1.05297
