         349
 CSIRO Nanostructure Databank - Neutral Graphene Oxide Data Set
C          2.07327         1.17116        -1.66747
C          1.69850         2.45252        -1.27830
C          3.42994         0.87727        -1.82564
C          2.66774         3.45370        -1.07898
C          1.45710         6.64045        -1.67018
C          1.60619         7.91109        -2.10669
C          2.56751         5.87055        -1.13886
C          2.89245         8.61025        -1.91396
C          1.99761        10.94964        -2.32958
C          1.90479        12.29656        -1.97097
C          2.79413        10.06315        -1.59252
C          2.51254        12.77578        -0.79333
C          1.38349        15.03517        -1.03429
C          1.41280        16.39530        -0.98281
C          2.42863        14.21696        -0.41039
C          2.60588        17.12049        -0.63327
C          2.65751        18.52850        -0.86770
C          4.38677         1.87212        -1.60757
C          4.04167         3.19566        -1.23802
C          5.84342         1.55049        -1.59306
C          5.20188         4.14802        -1.04210
C          3.83187         6.37928        -1.01712
C          4.03254         7.81829        -1.33400
C          5.11788         5.63742        -0.82604
C          4.95327         8.48373        -0.35881
C          3.47668        10.51800        -0.44155
C          3.25392        11.85432        -0.02978
C          4.48504         9.65755         0.17854
C          5.02596        12.96456         0.80173
C          3.72054        15.00046         0.10357
C          3.78416        16.42866        -0.26613
C          5.00439        14.29472         0.35228
C          5.03448        17.10555        -0.33705
C          3.84883        19.20899        -0.84082
C          5.07925        18.50856        -0.63308
C          6.46022         2.00092        -0.28802
C          6.52584         3.39842        -0.84782
C          7.49125         1.38535         0.34342
C          7.76338         4.25066        -0.54737
C          6.28198         6.38624        -0.22887
C          6.18574         7.78316         0.05801
C          7.50802         5.69013        -0.05342
C          7.35551         8.51014         0.49918
C          6.25467        10.78590         0.98550
C          6.21551        12.18017         0.84464
C          7.40915         9.96380         0.72960
C          7.47780        12.92346         0.80100
C          6.24505        15.00218         0.16624
C          6.26896        16.39629        -0.15673
C          7.48538        14.32795         0.34452
C          7.51107        17.07650        -0.29625
C          6.31583        19.17279        -0.74531
C          7.54389        18.48423        -0.60208
C          8.66415         2.13942         0.73450
C          8.76684         3.53265         0.36511
C          9.76538         1.45950         1.24384
C          9.90694         4.22551         0.72343
C          8.65107         6.40042         0.35041
C          8.60023         7.80568         0.57052
C         10.00331         5.68855         0.35554
C          9.85305         8.52942         0.75210
C          8.64939        10.63907         0.69630
C          8.72997        12.10448         0.79172
C          9.89071         9.94362         0.67977
C          9.98899        12.77421         0.43781
C          8.70498        14.97307         0.12480
C          8.74365        16.36455        -0.18189
C          9.95830        14.17121        -0.11125
C          9.99651        17.03981        -0.34512
C          8.78869        19.13668        -0.76837
C         10.01969        18.44625        -0.63491
C         11.01959         2.10920         1.42807
C         11.05702         3.53859         1.25866
C         12.20348         1.40968         1.72879
C         12.26105         4.21228         1.53042
C         11.01540         6.40877         1.21344
C         11.07602         7.86462         0.98052
C         12.24845         5.67207         1.63697
C         12.29043         8.55480         1.10421
C         11.13443        10.65432         0.78821
C         11.15702        12.09053         0.59043
C         12.34280         9.95860         0.97168
C         12.41760        12.87954         0.87225
C         11.23021        14.94198         0.09170
C         11.23722        16.33507        -0.17695
C         12.43318        14.24845         0.22868
C         12.48153        17.03206        -0.16360
C         11.27284        19.09837        -0.79207
C         12.50270        18.43909        -0.53640
C         13.45153         2.06891         1.85393
C         13.47681         3.52480         1.81401
C         14.66952         1.36054         1.93596
C         14.67498         4.24055         2.00534
C         13.53162         6.37640         1.67102
C         13.54266         7.76588         1.19402
C         14.72048         5.67290         1.85296
C         14.85462         8.44996         1.05994
C         13.63917        10.71207         1.26639
C         13.69687        12.09135         0.64378
C         14.89648         9.92680         0.95559
C         14.83152        12.69336         0.26351
C         13.66039        14.91559         0.03505
C         13.69272        16.31608        -0.02024
C         14.87020        14.08805        -0.33723
C         14.99946        17.02144         0.31080
C         13.74384        19.04321        -0.77258
C         15.00749        18.54718        -0.13328
C         15.91372         2.02802         2.03457
C         15.91609         3.48979         2.42958
C         17.12549         1.35567         1.89404
C         17.19792         4.20317         2.07929
C         16.01024         6.37365         1.87226
C         16.09083         7.76255         1.49185
C         17.19146         5.63353         2.04048
C         17.28335         8.44503         1.29799
C         16.06139        10.52109         0.63973
C         16.11905        11.90243         0.02669
C         17.34086         9.72658         0.47730
C         17.29023        12.73528         0.58862
C         16.17788        14.84839        -0.18044
C         16.22067        16.20308        -0.13260
C         17.44075        13.99490        -0.30193
C         17.51780        16.96155         0.03030
C         16.28659        18.99464        -0.78927
C         17.48795        18.35175        -0.60204
C         18.38137         2.04332         1.82113
C         18.38452         3.49731         1.90142
C         19.56709         1.35871         1.56334
C         19.63648         4.19722         1.70849
C         18.47294         6.33048         2.15596
C         18.51911         7.87678         1.79045
C         19.70907         5.59915         1.90784
C         19.82101         8.47240         1.48028
C         18.58974        10.57095         0.78151
C         18.57245        11.92552         0.71454
C         19.90918         9.81714         0.78766
C         19.80128        12.70817         0.99907
C         18.68257        14.78739        -0.07178
C         18.66972        16.14916        -0.67183
C         19.83223        14.22383         0.60354
C         20.00096        16.86991        -0.63491
C         18.73865        18.99875        -0.85672
C         19.98157        18.35250        -0.70003
C         20.79427         2.03460         1.24575
C         20.79927         3.49048         1.31605
C         21.95428         1.33153         0.92906
C         21.98505         4.22015         1.05805
C         20.93414         6.30471         1.77935
C         20.96526         7.76037         1.71498
C         22.08176         5.59646         1.34878
C         22.27566         8.47464         1.96984
C         21.13734        10.59827         1.23520
C         21.10278        12.04700         1.12770
C         22.26782         9.94957         1.64623
C         22.26121        12.80697         1.29032
C         21.15164        14.84851         0.47860
C         21.23975        16.18397        -0.14747
C         22.27174        14.22831         0.99470
C         22.44510        16.99482         0.09036
C         21.19710        19.04224        -0.56733
C         22.41418        18.39378        -0.18228
C         23.09617         2.00798         0.30832
C         23.06720         3.53102         0.33963
C         24.44138         1.40432         0.14438
C         24.41010         4.22486         0.23534
C         23.34831         6.32970         1.05411
C         23.48038         7.78497         1.33452
C         24.25966         5.71518         0.03979
C         24.54818         8.60011         0.69922
C         23.59593        10.64387         1.90500
C         23.50517        12.14943         1.65288
C         24.69511         9.93375         1.03182
C         24.60506        12.90069         1.93439
C         23.51718        15.02906         1.14992
C         23.61994        16.36732         0.52771
C         24.78158        14.33843         1.62484
C         24.85987        17.06109         0.57734
C         23.58149        19.12657         0.12622
C         24.79623        18.50793         0.48625
C         25.50647         2.11217        -0.34900
C         25.30047         3.55373        -0.80347
C         26.82508         1.53979        -0.47182
C         26.55711         4.37716        -1.05641
C         25.39903         6.49166        -0.51216
C         25.73605         7.85190         0.08908
C         26.55145         5.73538        -1.10849
C         26.50073         8.68736        -0.96617
C         25.91538        10.60078         0.61925
C         26.34811        11.83337         1.22533
C         26.77268        10.07146        -0.39510
C         27.20977        12.72781         0.65856
C         26.06836        14.92590         1.17994
C         26.07371        16.25806         0.76201
C         27.39241        14.12754         1.24029
C         27.36214        16.84019         0.47301
C         25.85294        19.36451         0.97219
C         27.18123        18.95818         0.86022
C         27.86185         2.21936        -1.05903
C         27.62042         3.55217        -1.74522
C         29.17159         1.62496        -1.17494
C         28.86854         4.35779        -2.00939
C         27.49096         6.53244        -2.03600
C         27.81656         7.96472        -1.45408
C         28.73648         5.71230        -2.36844
C         28.59269         8.95237        -2.36606
C         27.77999        10.85879        -0.94002
C         27.85823        12.35665        -0.64128
C         28.67432        10.32208        -1.94900
C         29.34386        12.73948        -0.56638
C         28.61523        14.85452         0.67134
C         28.62457        16.29903         0.76428
C         29.61304        14.14537        -0.02052
C         29.75616        17.19839         0.97975
C         28.31967        19.24387         1.61823
C         29.55363        18.52884         1.52980
C         30.21083         2.29109        -1.75042
C         30.08384         3.65874        -2.21548
C         31.15297         4.29912        -2.87133
C         29.74434         6.23114        -3.19928
C         29.39232         8.59409        -3.46962
C         30.94882         5.55145        -3.44162
C         30.14597         9.53713        -4.19936
C         29.62956        11.19968        -2.54070
C         29.98120        12.54614        -1.94623
C         30.31071        10.81977        -3.70118
C         31.47088        12.76127        -1.80670
C         30.94795        14.57224        -0.23814
C         31.10759        16.73988         0.97922
C         31.88434        13.76044        -0.99566
C         32.16728        17.46389         1.52146
C         30.65422        19.21252         2.13416
C         31.93230        18.70046         2.14577
O         27.37934        18.03908        -0.21012
O         16.23645        11.66623        -1.35561
O         25.73623        12.22739         2.43672
O          5.45482         5.07132        -2.16573
O          8.21883        12.69372         2.06260
O         23.97780        15.15091         2.55333
O         14.25295         7.83329        -0.13545
O          5.07351        10.14174         1.35754
O          6.59837         2.67828        -2.19849
O          2.14560         4.64895        -0.61533
O         24.08528         6.76617         2.27633
O         11.15843         6.08047         2.61617
O         27.06170         3.30853        -3.04157
O         18.48636         7.36936         3.15996
O         22.63486         2.83061        -0.84042
O         29.49660         7.33455        -4.01502
O         24.15224         6.32905        -1.27539
O         15.15550        16.99152         1.71185
O         19.56734        13.74826         1.99244
O         20.89328        16.21776        -1.61123
O         31.59126        15.60115         0.33062
O          3.83681        12.31398         1.15894
O          4.04495         8.21636        -2.74492
O         12.37617        13.11593         2.26197
O          2.64179        14.58832         0.97780
O         26.73753         6.72915        -3.25757
H         26.49077         5.83941        -3.59609
O         20.15665         9.51202        -0.62184
H         19.27202         9.31742        -1.03415
O         25.64009         8.89804        -2.09436
H         25.66606         8.08919        -2.66504
O         24.66782         3.54797        -2.08812
H         25.39651         3.31909        -2.74247
O         26.62577         7.60003         1.20586
H         26.08484         7.18112         1.91517
O         29.50336        13.60449        -2.83398
H         29.78020        13.37901        -3.74743
O         17.63846        13.57866        -1.67852
H         17.46921        14.36468        -2.25182
O         15.87149         3.49185         3.90581
H         15.05125         3.02481         4.17320
O         27.72051        14.00555         2.65220
H         27.01285        13.44531         3.05882
O         10.55500         5.79637        -0.98331
H          9.93057         5.32096        -1.59121
O         14.92362        19.32956         1.09861
H         14.94456        18.62346         1.82536
O         14.75404        13.82807        -1.76898
H         15.31885        13.00798        -1.93336
O         17.77517        17.08613         1.42424
H         16.86352        17.07745         1.86215
O         29.98462        11.79192         0.31856
H         29.57367        11.87880         1.20503
O         28.68955         7.71075        -0.34155
H         28.69612         8.49592         0.24440
O         22.42681         8.35845         3.42235
H         22.89696         7.50472         3.58252
O         18.26294        16.11518        -2.06911
H         19.09110        16.00041        -2.59073
O         27.16619        13.10101        -1.67146
H         27.79028        13.26900        -2.41860
O         13.64317        10.90615         2.69924
H         13.15401        11.77345         2.86707
O         16.89774        13.15746         1.90436
H         17.67487        13.58327         2.33798
O          9.89422        13.94974        -1.58568
H         10.15202        14.78895        -2.02494
O         25.09071         4.07049         1.50949
H         24.73407         4.72619         2.14766
O         17.44997         9.37547        -0.93181
H         17.03129        10.15438        -1.41907
O         23.98949        10.48305         3.28066
H         23.50318         9.70408         3.65337
O          8.42727         4.41818        -1.83502
H          7.72114         4.58570        -2.50007
H          1.31276         0.39629        -1.83181
H          0.64178         2.70510        -1.12251
H          3.75443        -0.13465        -2.10521
H          0.48240         6.13716        -1.73287
H          0.73879         8.48413        -2.46644
H          1.48070        10.59335        -3.23085
H          1.33527        12.98073        -2.61470
H          0.52247        14.52965        -1.49502
H          0.56432        16.97168        -1.38053
H          1.72179        19.05803        -1.09838
H          6.11967         0.55489        -2.00631
H          3.87801        20.29121        -1.03175
H          7.52139         0.28719         0.41503
H          6.32673        20.24772        -0.97951
H          9.68496         0.37994         1.44075
H          8.80083        20.21208        -0.99914
H         12.16948         0.31352         1.81807
H         11.28641        20.16301        -1.07011
H         14.65894         0.26662         1.81208
H         13.77022        20.03945        -1.24566
H         17.11698         0.26644         1.73031
H         16.28753        19.99647        -1.25203
H         19.54689         0.25967         1.50262
H         18.73198        20.08284        -1.05309
H         21.97815         0.23779         1.05304
H         21.19710        20.13968        -0.65113
H         24.57802         0.35898         0.46299
H         23.55167        20.22433         0.06483
H         26.99233         0.52567        -0.07306
H         25.58294        20.30663         1.46989
H         29.31435         0.60165        -0.79438
H         28.27295        20.08230         2.32778
H         31.19048         1.80113        -1.85594
H         32.10095         3.76406        -3.02561
H         31.70771         6.00938        -4.08940
H         30.68280         9.20626        -5.09719
H         30.99318        11.52415        -4.20022
H         32.19069        12.17113        -2.39217
H         32.94979        14.01902        -0.91163
H         33.18089        17.04734         1.46102
H         30.46167        20.19849         2.58016
H         32.76087        19.25768         2.60156
