         620
 CSIRO Nanostructure Databank - Neutral Graphene Oxide Data Set
C         23.01094        27.28593        -1.22744
C         22.97584        28.65605        -1.15547
C         22.93455        31.59315        -0.87334
C         22.92401        32.96359        -0.72514
C         22.95662        35.89099        -0.25554
C         22.98168        37.30470        -0.18329
C         22.98932        40.22631        -0.35341
C         22.99190        41.61111        -0.29559
C         22.97210        44.49733         0.06852
C         22.95907        45.85907         0.28721
C         25.48469        24.48025        -1.20036
C         24.28079        25.15871        -1.23399
C         25.45653        27.29348        -0.95064
C         24.24542        26.57288        -1.13421
C         25.40471        28.72884        -0.85202
C         24.16913        29.41861        -0.96449
C         25.37229        31.58038        -0.71795
C         24.15006        30.85769        -0.85250
C         25.36309        33.00518        -0.63074
C         24.12915        33.70238        -0.58666
C         25.40330        35.81172        -0.15422
C         24.11374        35.13294        -0.35108
C         25.43571        37.33693        -0.06753
C         24.15757        38.04317        -0.20064
C         25.43134        40.19508        -0.24240
C         24.18721        39.49034        -0.28392
C         25.43070        41.62029        -0.20143
C         24.19498        42.33331        -0.18100
C         25.42047        44.46996         0.10918
C         24.19075        43.77490        -0.01646
C         25.41373        45.87819         0.34443
C         24.17233        46.57311         0.43768
C         25.34671        48.66552         0.81227
C         24.16757        47.97543         0.68456
C         28.09382        23.00996        -0.95694
C         28.00896        24.46617        -1.19534
C         26.70939        25.17523        -1.06624
C         27.92449        27.29240        -0.60689
C         26.70034        26.58078        -0.91440
C         27.81450        28.71425        -0.24872
C         26.60163        29.46589        -0.60766
C         27.86598        31.60343        -0.53763
C         26.61252        30.86735        -0.59631
C         27.87011        33.01277        -0.73888
C         26.61853        33.73639        -0.67816
C         27.82605        35.91111        -0.89029
C         26.62904        35.11999        -0.56669
C         27.88498        37.36581        -0.60867
C         26.69977        38.05835        -0.34717
C         27.91347        40.18975        -0.32509
C         26.68463        39.48379        -0.28826
C         27.88422        41.61854        -0.26454
C         26.67894        42.33456        -0.18468
C         27.87677        44.49928         0.10095
C         26.67798        43.77684        -0.01613
C         27.89088        45.89907         0.40570
C         26.63842        46.59827         0.49562
C         27.84429        48.72638         0.77033
C         26.60583        48.00126         0.71024
C         27.86916        50.14135         0.87601
C         30.56907        23.03580        -0.66771
C         29.25092        22.36568        -0.70970
C         30.58950        24.54313        -0.74256
C         29.29260        25.26459        -0.99544
C         30.37734        27.37539        -0.21754
C         29.16426        26.66615        -0.55647
C         30.37575        28.76689        -0.11638
C         29.10845        29.49823        -0.05860
C         30.33057        31.61840        -0.49611
C         29.09374        30.93383        -0.35880
C         30.31778        33.00286        -0.79147
C         29.10577        33.70074        -0.87476
C         30.39437        35.91106        -0.98915
C         29.12022        35.16142        -1.12643
C         30.37683        37.35810        -0.92164
C         29.13461        38.06236        -0.72068
C         30.40722        40.16732        -0.49194
C         29.15682        39.47301        -0.50677
C         30.38447        41.56497         0.10955
C         29.16391        42.34026        -0.32934
C         30.41305        44.51145         0.29611
C         29.16718        43.83326        -0.11842
C         30.39198        45.89012         0.55549
C         29.11656        46.59557         0.57113
C         30.30093        48.75574         0.73241
C         29.08378        48.02057         0.71182
C         30.29184        50.15806         0.65859
C         29.05162        50.83909         0.77924
C         32.92546        20.28800         0.41134
C         31.74788        20.97454         0.08857
C         32.93201        23.10674         0.21507
C         31.74675        22.35702        -0.06720
C         32.92201        24.54873         0.26112
C         31.71183        25.27366        -0.10066
C         32.73143        27.42343         0.58619
C         31.61015        26.64849         0.01956
C         32.80268        28.86669         0.27940
C         31.60155        29.52645        -0.04949
C         32.82149        31.65325        -0.31784
C         31.57868        30.92733        -0.28620
C         32.83285        33.00793        -0.66064
C         31.59517        33.68719        -1.18755
C         32.82589        35.87429        -0.92167
C         31.57479        35.18320        -0.93792
C         32.80368        37.28091        -1.15180
C         31.60192        38.08072        -1.04530
C         32.82763        40.35427        -0.78711
C         31.61053        39.53030        -0.84147
C         32.84891        41.70586        -0.26992
C         31.64876        42.38048        -0.00671
C         32.88354        44.49457         0.40903
C         31.64397        43.78327         0.24864
C         32.85949        45.90727         0.71419
C         31.63465        46.58607         0.78466
C         32.86111        48.88939         0.84893
C         31.58074        48.05855         0.95742
C         32.77435        50.24935         0.29299
C         31.50546        50.88093         0.27860
C         32.43768        52.71392        -0.98281
C         31.36346        52.14990        -0.31973
C         35.42983        18.78256         1.00049
C         35.39611        20.21055         0.66861
C         34.12295        20.97166         0.58090
C         35.31700        23.14687         0.86615
C         34.13443        22.40552         0.53934
C         35.30744        24.55039         0.95097
C         34.07707        25.24074         0.69144
C         35.24294        27.50234         1.13342
C         33.98967        26.69133         0.96328
C         35.25986        28.91046         0.67553
C         34.04152        29.57700         0.32332
C         35.28494        31.70132         0.04769
C         34.05269        30.95898        -0.01306
C         35.29767        33.07250        -0.22488
C         34.13714        33.69800        -0.93209
C         35.27955        35.92270        -0.73820
C         34.07417        35.19764        -0.81169
C         35.27797        37.30420        -1.06863
C         34.06338        37.82602        -1.49637
C         35.32381        40.43763        -0.96775
C         34.04653        39.93614        -1.32260
C         35.34199        41.76689        -0.50118
C         34.09373        42.42960        -0.20442
C         35.40735        44.44917         0.35859
C         34.09766        43.78067         0.20513
C         35.43403        45.94155         0.57100
C         34.14502        46.65823         0.83457
C         35.35676        48.87692         0.18347
C         34.17144        48.16948         0.74865
C         35.27559        50.24117        -0.17719
C         33.93093        50.86688        -0.26972
C         35.62392        53.24671        -1.01103
C         33.67652        52.06045        -0.98195
C         35.62345        54.63909        -0.89048
C         37.85218        18.86162         1.47568
C         36.59557        18.16391         1.32402
C         37.86717        20.26789         1.42554
C         36.66537        20.97993         0.95043
C         37.78996        23.17751         1.62734
C         36.52148        22.41641         1.30551
C         37.74599        24.64045         1.46751
C         36.54762        25.27630         1.26168
C         37.81009        27.50407         1.13168
C         36.53791        26.76611         1.32825
C         37.74336        28.89266         0.84740
C         36.49317        29.60533         0.63506
C         37.75139        31.72465         0.27617
C         36.50915        31.00542         0.36697
C         37.78033        33.11702         0.00393
C         36.50151        33.89717         0.14167
C         37.74911        35.92552        -0.68876
C         36.55509        35.26459        -0.49375
C         37.76564        37.35644        -1.23716
C         36.52566        38.11986        -0.75021
C         37.76042        40.27326        -0.98484
C         36.54504        39.62644        -1.06071
C         37.79379        41.78735        -1.12760
C         36.58850        42.46542        -0.50768
C         37.84274        44.56496        -0.21485
C         36.62081        43.80783        -0.17728
C         37.83072        45.98956        -0.06439
C         36.62137        46.71477         0.16841
C         37.80220        48.85771        -0.17783
C         36.58598        48.13583         0.07177
C         37.74810        50.26132        -0.28585
C         36.51668        50.97208        -0.36311
C         37.83886        53.11343        -0.09623
C         36.62828        52.42015        -0.47512
C         37.81726        54.53220         0.13372
C         36.68088        55.27028        -0.22984
C         40.31274        16.02457         1.76187
C         39.11884        16.70047         1.67567
C         40.30011        18.83319         1.81402
C         39.08314        18.12605         1.67561
C         40.27010        20.28935         1.99443
C         39.04231        21.02657         1.70464
C         40.29628        23.15409         1.48035
C         39.07878        22.44096         1.61802
C         40.21880        24.61381         1.04912
C         39.05502        25.36808         1.72255
C         40.27318        27.53680         1.31328
C         39.04299        26.83319         1.31048
C         40.18029        28.96545         1.14691
C         38.96174        29.61820         0.78856
C         40.19846        31.73585         0.35308
C         38.97365        31.01958         0.47510
C         40.20939        33.08588        -0.05974
C         38.99870        33.80291        -0.21896
C         40.22099        35.93707        -0.64302
C         39.01752        35.23389        -0.52487
C         40.25035        37.38411        -0.76876
C         39.04949        38.10473        -0.92262
C         40.22754        40.25974        -0.88494
C         39.02188        39.53883        -0.92471
C         40.24945        41.68961        -0.69108
C         39.07764        42.43183        -0.66244
C         40.27841        44.57337        -0.22065
C         39.06763        43.85579        -0.38458
C         40.27471        45.97436        -0.11727
C         39.06688        46.70233        -0.14457
C         40.27852        48.82119        -0.42289
C         39.07089        48.15273        -0.22261
C         40.31211        50.26899        -0.65543
C         39.00714        51.01152        -0.52159
C         40.30607        53.08570         0.14091
C         39.06555        52.42613        -0.12496
C         40.25286        54.45018         0.59256
C         39.02243        55.17054         0.62909
C         40.18181        57.09373         1.60703
C         39.01853        56.49211         1.12446
C         42.77987        16.02831         1.68273
C         41.54826        16.72850         1.75951
C         42.79121        18.86996         1.62513
C         41.54692        18.15460         1.78110
C         42.81738        20.29523         1.54389
C         41.61198        21.06918         1.85952
C         42.75862        23.15537         1.15684
C         41.53584        22.48315         1.47056
C         42.74275        24.60298         1.06022
C         41.53829        25.34906         1.18301
C         42.82771        27.39460         1.19222
C         41.54977        26.77091         1.30221
C         43.06640        28.78487         1.45656
C         41.25775        29.86054         1.40344
C         42.69638        31.78558         0.70480
C         41.41668        31.10961         0.79337
C         42.74062        33.08777         0.20150
C         41.50752        33.73216        -0.30396
C         42.77656        35.96815        -0.41062
C         41.51601        35.21964        -0.63457
C         42.75273        37.41226        -0.58449
C         41.52235        38.06928        -0.78574
C         42.81487        40.28300        -1.04427
C         41.48967        39.51892        -1.06477
C         42.81891        41.70884        -0.69230
C         41.53787        42.34820        -0.36293
C         42.82732        44.57934        -0.25360
C         41.55048        43.83706        -0.11828
C         42.81413        45.94877        -0.10918
C         41.55215        46.71244         0.19449
C         42.86228        48.78538        -0.70440
C         41.54967        48.07244        -0.47870
C         42.90187        50.28907        -0.86509
C         41.61332        51.05367        -0.57186
C         42.73308        53.08249         0.52012
C         41.56087        52.40581         0.07021
C         42.69783        54.44840         0.83090
C         41.45492        55.12690         0.94159
C         42.63094        56.97102         2.11243
C         41.41639        56.43664         1.51463
C         43.96136        16.71273         1.50538
C         45.21475        18.83562         1.10852
C         43.99009        18.13176         1.41775
C         45.21533        20.25898         1.00560
C         43.99599        20.99340         1.19541
C         45.23660        23.11373         0.87169
C         43.98087        22.43181         1.07156
C         45.22945        24.55868         0.72974
C         43.99035        25.26236         0.85267
C         45.17646        27.37803         0.39954
C         44.00044        26.67869         0.80156
C         45.10276        28.82814         0.16637
C         44.01143        29.54953         0.82985
C         45.25153        31.75645         0.57012
C         43.97586        31.04161         0.93700
C         45.19947        33.18080         0.22032
C         43.97100        33.83783         0.08676
C         45.20138        36.02915         0.23417
C         43.94259        35.27520        -0.13352
C         45.24567        37.43658        -0.29688
C         44.01108        38.13532        -0.57939
C         45.26939        40.27233        -0.78543
C         44.04816        39.52812        -0.78447
C         45.27167        41.67077        -0.73890
C         44.03128        42.40005        -0.55812
C         45.30393        44.53886        -0.32605
C         44.06180        43.83665        -0.39274
C         45.27802        46.03365        -0.62962
C         44.09983        46.68538         0.14293
C         45.23525        48.87403         0.10844
C         44.08388        48.16536        -0.13105
C         45.33077        50.29907        -0.13037
C         44.25196        50.91547        -0.76443
C         45.27033        53.12132         0.79738
C         43.97040        52.41689         1.05899
C         45.25120        54.50604         0.87413
C         43.95549        55.28823         0.88581
C         43.83283        56.38000         1.92171
C         47.59974        18.81132         0.60508
C         46.42071        18.13579         0.88360
C         47.63947        20.21266         0.56711
C         46.44430        20.95301         0.77187
C         47.72595        23.12263         0.80188
C         46.44001        22.39366         0.79145
C         47.71358        24.61091         0.56429
C         46.40909        25.28129         0.45577
C         47.63231        27.40175        -0.04336
C         46.39152        26.68791         0.21553
C         47.66183        28.80093        -0.12411
C         46.41472        29.57449        -0.08307
C         47.67489        31.68095         0.05241
C         46.46780        31.00707         0.19550
C         47.68374        33.12307         0.04019
C         46.45892        33.85951         0.05713
C         47.71587        35.94440        -0.09987
C         46.47762        35.26140        -0.02962
C         47.72740        37.37469        -0.19622
C         46.47054        38.07702        -0.37853
C         47.83206        40.23042        -0.64288
C         46.52398        39.49427        -0.79273
C         47.86303        41.72215        -0.64469
C         46.53357        42.43853        -0.74370
C         47.75392        44.52261         0.05386
C         46.50991        43.85335        -0.36233
C         47.74519        46.02068         0.22796
C         46.61823        46.83125        -0.37912
C         47.78577        48.90509         0.32580
C         46.48917        48.11669         0.48218
C         47.77728        50.28414         0.35751
C         46.53553        51.02484         0.24258
C         47.74529        53.19249         0.36982
C         46.49417        52.40423         0.52522
C         47.66958        54.64829         0.55856
C         46.47527        55.25955         0.76279
C         50.05855        20.25974        -0.33808
C         48.95742        20.88787         0.40495
C         50.14982        23.11953        -0.06465
C         49.00838        22.39579         0.52829
C         50.11514        24.54649        -0.21862
C         48.92394        25.27963         0.03204
C         50.08107        27.37527        -0.48350
C         48.87667        26.67454        -0.16385
C         50.11116        28.81313        -0.47403
C         48.89577        29.52526        -0.22608
C         50.14020        31.65396        -0.13949
C         48.90243        30.94502        -0.13882
C         50.13851        33.05871        -0.01022
C         48.92055        33.80551        -0.02375
C         50.19863        35.94008        -0.02010
C         48.94834        35.23272        -0.05346
C         50.19986        37.36328         0.01039
C         48.95959        38.04549        -0.10965
C         50.23496        40.24524         0.24306
C         48.94967        39.51029         0.01819
C         50.26688        41.70539         0.05049
C         49.07018        42.42400        -0.13021
C         50.25791        44.53222         0.29392
C         49.05203        43.82210         0.04022
C         50.25441        45.99873         0.36685
C         49.04218        46.74107         0.29869
C         50.28758        48.85309         0.43211
C         49.03764        48.15172         0.36458
C         50.31636        50.27790         0.56909
C         49.01798        51.01192         0.82864
C         50.35967        53.14489         0.66664
C         49.06868        52.46553         0.39695
C         51.19355        20.95664        -0.60667
C         52.52110        23.08731        -0.72637
C         51.29359        22.39020        -0.42665
C         52.51947        24.50356        -0.89307
C         51.28573        25.23498        -0.68129
C         52.43127        27.37445        -1.27626
C         51.25739        26.64352        -0.76427
C         52.52340        28.83369        -1.06019
C         51.32971        29.52116        -0.67307
C         52.56609        31.63735        -0.59879
C         51.36894        30.94079        -0.42443
C         52.70278        33.01049        -0.14370
C         51.39246        33.77976         0.17243
C         52.67283        35.91946         0.03797
C         51.42979        35.23820         0.05869
C         52.68594        37.34565         0.08083
C         51.45228        38.07413         0.12085
C         52.71341        40.20641         0.22324
C         51.48899        39.48624         0.21161
C         52.72786        41.63273         0.29167
C         51.48859        42.38626         0.24241
C         52.75088        44.48266         0.58125
C         51.46921        43.79865         0.35423
C         52.73982        45.97828         0.57345
C         51.47007        46.70805         0.41170
C         52.77415        48.83879         0.45438
C         51.51121        48.12798         0.40677
C         52.77858        50.25801         0.55512
C         51.52313        50.97263         0.64208
C         51.49720        52.42720         0.78506
C         54.95200        23.08059        -0.88128
C         53.76070        22.39665        -0.78051
C         54.98368        24.49426        -1.05910
C         53.73983        25.17854        -1.17624
C         54.98002        27.37968        -1.71057
C         53.70101        26.60716        -1.54876
C         54.98047        28.85124        -1.55215
C         53.73501        29.51089        -1.28696
C         55.01924        31.75196        -1.32643
C         53.71455        30.98529        -1.24136
C         55.07846        33.14274        -0.83017
C         53.91325        33.79871        -0.41553
C         55.14761        35.90058        -0.16057
C         53.91932        35.20032        -0.13243
C         55.16596        37.33275         0.00211
C         53.92916        38.05257         0.08078
C         55.18670        40.17185         0.17712
C         53.94658        39.47384         0.16322
C         55.20795        41.59679         0.26473
C         53.97750        42.32341         0.31615
C         55.24258        44.42818         0.31128
C         54.01605        43.74384         0.35942
C         55.25871        45.89852         0.09987
C         53.98373        46.68315         0.16184
C         55.25572        48.80835         0.35987
C         54.01445        48.14434         0.35372
C         55.22849        50.22526         0.46620
C         54.03683        50.91893         0.55536
C         57.43493        24.63280        -0.58702
C         56.23288        25.21284        -1.04966
C         57.48357        27.42403        -1.19626
C         56.28140        26.62487        -1.46712
C         57.47688        28.81863        -1.43555
C         56.21614        29.54924        -1.57511
C         57.48132        31.69090        -1.40534
C         56.27560        30.98693        -1.43671
C         57.53270        33.10003        -1.10528
C         56.32841        33.81549        -0.79897
C         57.62095        35.86310        -0.38362
C         56.37340        35.19386        -0.42350
C         57.68611        37.26770         0.17464
C         56.39253        38.03229         0.02381
C         57.66067        40.16411         0.11025
C         56.41172        39.44232         0.10188
C         57.67360        41.54921         0.28035
C         56.45143        42.29320         0.32429
C         57.72801        44.44824         0.32791
C         56.46855        43.72023         0.32784
C         57.73135        45.88865         0.32744
C         56.52147        46.63891         0.25975
C         57.77376        48.71431         0.39622
C         56.51528        48.04780         0.31867
C         58.61120        25.35727        -0.48234
C         59.85947        27.50182        -0.64782
C         58.66299        26.75938        -0.77332
C         59.87999        28.85134        -0.98428
C         58.71106        29.52470        -1.37152
C         59.98997        31.71857        -1.57963
C         58.72540        30.96152        -1.86217
C         59.99395        33.02611        -1.25064
C         58.77414        33.78595        -1.04001
C         60.04307        35.93983        -0.76794
C         58.80897        35.17866        -0.71438
C         60.07199        37.29584        -0.61422
C         58.89782        38.05589        -0.27635
C         60.04235        40.26068        -0.56424
C         58.89279        39.44181        -0.19597
C         60.07771        41.58746        -0.31924
C         58.99714        42.24417         0.50941
C         60.16315        44.47259         0.46207
C         58.94759        43.75365         0.38387
C         60.18257        45.85483         0.46601
C         58.97052        46.58943         0.40205
C         58.95791        48.01271         0.42321
O         42.16566        39.92653        -2.31947
O         42.20138        29.43499         2.33825
O         45.45878        29.26051        -1.18239
O         47.41489        42.25341        -1.92403
O         47.48059        45.19656         1.37580
O         35.68390        45.01010         1.69261
O         47.45218        39.68311        -1.93091
O         36.88620        22.68829         2.69267
O         28.77481        24.99302        -2.33223
O         29.31861        43.21335        -1.47546
O         30.98191        23.73685        -1.89587
O         34.63821        52.65138        -1.80417
O         39.56729        50.70679        -1.85168
O         52.82004        45.26480         1.85356
O         32.23303        48.65275         2.13743
O         44.84558        31.54320         2.00752
O         54.51054        46.25606        -1.14088
O         55.75990        26.87901        -2.83367
O         45.01330        46.01082        -1.98686
O         42.21548        48.05669        -1.78594
O         47.88801        24.05126         1.92693
O         54.14208        31.61961        -2.50990
O         28.31132        35.59562        -2.26066
O         36.31255        20.63019        -0.42116
O         34.39828        47.48107         2.02303
O         41.56393        42.90200         1.02192
O         25.53296        36.50320         1.14395
O         34.05086        38.95779        -2.30831
O         43.84861        51.48422         1.84869
O         48.47824        52.78758        -0.88532
O         41.01512        20.76213         3.15454
O         49.29247        39.93730         1.37345
O         33.00290        27.05375         1.99156
O         35.80308        27.30376         2.48785
O         52.23004        33.22400         1.23200
O         52.77348        26.92808        -2.64290
O         49.40317        21.53392         1.64977
O         41.63896        34.20929        -1.69784
O         42.19094        50.96018        -1.94392
O         28.29169        29.07542         1.09290
O         57.85547        37.08090         1.63276
H         57.79416        37.96695         2.04914
O         36.61162        38.07527         0.70813
H         35.85136        38.56982         1.07943
O         47.09606        47.26095        -1.66137
H         46.40533        46.93062        -2.30988
O         30.17328        41.35765         1.54961
H         30.93934        40.85583         1.89939
O         39.30435        25.32217         3.14620
H         38.52175        25.68509         3.61177
O         41.56483        46.96169         1.64380
H         41.25614        46.14489         2.09280
O         34.40415        33.47263        -2.40589
H         34.55187        32.50837        -2.52273
O         59.35807        41.99493         1.91408
H         59.45573        41.02508         2.02206
O         39.89534        24.60719        -0.37601
H         40.64260        24.19333        -0.85693
O         44.33522        46.44391         1.55383
H         43.53976        46.76812         2.03741
O         43.97420        55.98821        -0.41395
H         43.17348        56.55409        -0.45276
O         37.71860        42.06953        -2.57021
H         36.97911        41.53958        -2.93754
O         31.66760        33.54798        -2.65379
H         32.60529        33.73887        -2.91073
O         37.67946        37.28364        -2.68211
H         38.46666        36.80388        -3.01489
O         36.36459        34.16841         1.59586
H         37.11497        34.74420         1.85711
O         44.38823        52.05385        -1.46134
H         43.54755        52.16842        -1.97996
O         58.63862        30.87744        -3.32775
H         57.78866        30.43907        -3.54919
O         45.14467        36.17606         1.70480
H         45.18730        35.27473         2.09147
O         48.88317        51.07378         2.29233
H         48.90456        50.15425         2.63374
O         46.46724        47.76145         1.88241
H         46.02914        48.48194         2.37959
H         22.08121        26.71683        -1.37179
H         22.00795        29.16677        -1.24538
H         21.97583        31.06929        -0.98201
H         21.95906        33.48776        -0.71534
H         21.97283        35.40564        -0.31346
H         22.01154        37.81926        -0.19477
H         22.02499        39.70734        -0.42595
H         22.02739        42.13311        -0.32678
H         22.01222        43.97503        -0.03227
H         22.00456        46.40016         0.35542
H         25.48461        23.38803        -1.31691
H         23.34014        24.60602        -1.36873
H         25.30970        49.74684         0.99677
H         23.20472        48.49992         0.76576
H         27.15729        22.43471        -0.91861
H         26.93409        50.70477         0.98665
H         29.20678        21.28988        -0.48779
H         29.02547        51.93568         0.82466
H         32.89800        19.19160         0.45707
H         30.84141        20.38812        -0.10796
H         32.33085        53.65374        -1.53893
H         30.39017        52.65468        -0.34584
H         34.49407        18.20705         1.01989
H         34.79939        55.22291        -1.31953
H         36.56403        17.08742         1.53877
H         36.66160        56.36081        -0.10203
H         40.32672        14.92525         1.76963
H         38.18730        16.12417         1.60963
H         40.13114        58.09535         2.05759
H         38.07235        57.04705         1.18522
H         42.77551        14.92947         1.71434
H         42.53569        57.84342         2.77669
H         44.88959        16.13589         1.40599
H         44.73741        56.77680         2.40509
H         48.52316        18.23552         0.45600
H         46.45039        17.04070         0.93937
H         48.59001        55.24289         0.47552
H         46.42225        56.35424         0.84711
H         49.97113        19.21107        -0.65572
H         50.39548        54.24337         0.70248
H         52.02271        20.43905        -1.10938
H         52.44293        52.95843         0.95924
H         55.89253        22.51468        -0.85598
H         53.78283        21.30517        -0.66093
H         56.16543        50.79793         0.46958
H         54.07910        52.01431         0.61938
H         57.44569        23.57549        -0.28845
H         57.81111        49.81117         0.42997
H         59.52678        24.85835        -0.13454
H         60.77971        26.99809        -0.32046
H         60.83169        29.39609        -0.92294
H         60.94832        31.20938        -1.75553
H         60.96123        33.52824        -1.11092
H         60.97963        35.42627        -1.02201
H         61.02605        37.82217        -0.75991
H         60.88079        39.78642        -1.09427
H         60.95228        42.17716        -0.63087
H         61.10954        43.92068         0.54796
H         61.13689        46.39598         0.53812
H         59.91497        48.55178         0.47384
