         621
 CSIRO Nanostructure Databank - Neutral Graphene Oxide Data Set
C          6.27173        31.51982         1.92749
C          6.20439        32.87103         1.80782
C          8.79735        27.29630         1.17268
C          8.81384        28.69993         1.26975
C          7.67374        29.35800         1.78366
C          8.77269        31.59897         1.45275
C          7.56855        30.80661         1.89718
C          8.51703        32.94652         0.87588
C          7.33896        33.68628         1.39782
C          8.44540        35.83357         0.86606
C          7.31386        35.05529         1.34376
C          8.46005        37.24466         0.99258
C         10.99330        23.07529        -0.25340
C         10.95162        24.50897        -0.27949
C          9.89217        25.14879         0.35581
C         10.99394        27.40130        -0.16755
C          9.73920        26.59055         0.32753
C         11.12525        28.77804         0.33553
C         10.03512        29.42774         0.89257
C         11.17070        31.69837         0.46969
C         10.05588        30.89608         1.09975
C         10.97157        33.08824         0.01153
C          9.64622        33.72258         0.22984
C         10.68220        35.95624        -0.21097
C          9.55011        35.17754         0.28499
C         10.78610        37.35988         0.18978
C          9.62187        38.01883         0.69339
C         10.83518        40.16287         0.57223
C          9.67150        39.42002         0.88133
C         10.85639        41.58923         0.74707
C         13.32638        18.82236        -0.88299
C         13.31175        20.22932        -0.97719
C         12.13837        20.93413        -0.62867
C         13.22085        23.04145        -1.34219
C         12.08909        22.34066        -0.69004
C         13.18592        24.53200        -1.46229
C         12.07423        25.26660        -0.81332
C         13.35661        27.38336        -1.00045
C         12.17580        26.63775        -0.62031
C         13.43786        28.73941        -0.77304
C         12.39966        29.46050         0.00668
C         13.23561        31.66469        -1.03254
C         12.37287        30.97681        -0.04802
C         13.15414        33.05959        -1.17552
C         12.00577        33.75580        -0.61732
C         13.19202        35.98286        -0.63086
C         11.91878        35.24177        -0.73939
C         13.21512        37.32080        -0.32289
C         11.99800        38.05587         0.01085
C         13.21298        40.22166        -0.22894
C         12.01090        39.46415         0.15745
C         13.19940        41.71963        -0.04855
C         11.99695        42.36639         0.52410
C         13.27659        44.48670         0.61327
C         12.07173        43.75233         0.78399
C         13.31316        45.87720         0.76896
C         15.68358        14.67919         0.28538
C         15.71671        16.03518        -0.09993
C         14.52369        16.72546        -0.50177
C         15.80052        18.75870        -1.16822
C         14.51846        18.06104        -0.90765
C         15.79745        20.22939        -1.59941
C         14.52392        20.97236        -1.28016
C         15.75358        23.11385        -1.57376
C         14.52296        22.34320        -1.41821
C         15.74897        24.50753        -1.73568
C         14.46726        25.24796        -1.80977
C         15.80105        27.47757        -1.77275
C         14.50540        26.74190        -1.68402
C         15.75744        28.89126        -1.83840
C         14.49460        29.50186        -1.40375
C         15.88593        31.94938        -2.43569
C         14.16105        30.82114        -1.71530
C         15.64289        33.25151        -2.00287
C         14.30935        33.86307        -1.67982
C         15.74627        35.78351        -0.54728
C         14.41006        35.28971        -1.13756
C         15.79690        37.30719        -0.38190
C         14.51045        38.04823        -0.23954
C         15.70284        40.20588        -0.31610
C         14.51841        39.52544        -0.32747
C         15.72510        41.62209         0.09932
C         14.49079        42.41165         0.10780
C         15.78246        44.48775         0.27988
C         14.52131        43.76931         0.34918
C         15.74231        45.94350         0.29898
C         14.51378        46.62790         0.57785
C         15.66311        48.79809         0.40608
C         14.49406        48.03973         0.62518
C         15.67833        50.22492         0.57696
C         18.00182        10.56055         1.61724
C         18.02339        11.94490         1.41741
C         16.84923        12.63051         1.01038
C         18.10390        14.72836         0.74844
C         16.85885        14.00864         0.70072
C         18.13771        16.11278         0.41733
C         16.94131        16.75358         0.00738
C         18.11166        18.99022        -0.03893
C         17.01719        18.11923        -0.54637
C         18.09784        20.44854        -0.38168
C         16.98549        21.03512        -1.11084
C         18.24445        23.15775        -1.34388
C         16.99938        22.41926        -1.32258
C         18.19008        24.54006        -1.71237
C         16.97980        25.25286        -1.80526
C         18.22472        27.43257        -2.06063
C         17.00291        26.72021        -1.93100
C         18.22543        28.88504        -2.13735
C         16.98135        29.64987        -2.12019
C         18.35965        31.70444        -2.29352
C         17.06998        31.08446        -2.32693
C         18.56105        33.11225        -2.42529
C         16.71279        34.21204        -2.10691
C         18.26094        35.92565        -1.11698
C         16.91299        35.33625        -1.37566
C         18.32706        37.38523        -0.93795
C         17.01422        38.06689        -0.86655
C         18.29389        40.26458        -0.54958
C         16.98806        39.56022        -0.71238
C         18.29154        41.60647        -0.22919
C         17.05328        42.34252         0.15769
C         18.27590        44.59161         0.08699
C         16.98443        43.81133         0.12104
C         18.09268        45.95048        -0.59565
C         16.90384        46.69331         0.01345
C         18.11264        48.84664        -0.13897
C         16.86261        48.09505         0.07058
C         18.11843        50.33575         0.13299
C         16.84965        50.98666         0.53162
C         18.12785        53.03261         1.13281
C         16.90697        52.34392         0.94328
C         18.16663        54.34985         1.63684
C         20.44257         6.23753         1.88325
C         20.47355         7.74886         2.08252
C         19.28025         8.39970         1.99218
C         20.46429        10.63837         2.34160
C         19.15208         9.85179         2.16468
C         20.48349        12.03157         1.84789
C         19.28016        12.67808         1.48826
C         20.56057        14.72248         0.94750
C         19.31021        14.04767         1.08678
C         20.59742        16.11506         0.57281
C         19.39893        16.80789         0.39319
C         20.66278        19.01267         0.20140
C         19.41430        18.28605         0.34417
C         20.68279        20.47312        -0.00506
C         19.42171        21.23409        -0.32263
C         20.75552        23.07414        -1.39456
C         19.48246        22.49875        -1.07054
C         20.74889        24.43960        -1.98579
C         19.44206        25.22308        -2.06875
C         20.72224        27.32496        -2.13148
C         19.48162        26.69984        -2.08867
C         20.78883        28.79946        -2.43999
C         19.48583        29.54202        -2.17297
C         20.79468        31.68136        -2.01303
C         19.55702        30.95524        -2.10092
C         20.86055        33.06614        -1.82093
C         19.64766        33.80401        -1.90826
C         20.81373        35.98456        -1.32490
C         19.56422        35.19644        -1.38520
C         20.80226        37.35847        -1.09846
C         19.53354        38.09018        -0.93668
C         20.79075        40.21768        -0.68621
C         19.54023        39.52664        -0.73297
C         20.80744        41.66120        -0.53851
C         19.57647        42.35944        -0.01309
C         20.65863        44.55533        -0.92211
C         19.43445        43.79133        -0.50833
C         20.58671        46.03458        -0.74854
C         19.41352        46.69013        -0.52222
C         20.60424        48.89437        -0.10278
C         19.37649        48.04564         0.14145
C         20.65009        50.22228         0.63639
C         19.37428        51.01905         0.49397
C         20.65632        52.98130         1.25909
C         19.38663        52.32114         0.92907
C         20.63540        54.28037         1.83730
C         19.37663        54.98904         2.00755
C         20.57294        56.95119         2.93573
C         19.38443        56.31042         2.49869
C         20.60601        58.27728         3.36116
C         23.07875         3.59327         2.96340
C         21.90688         4.24899         2.45173
C         22.93626         6.41346         1.94477
C         21.78350         5.58048         2.10269
C         22.99522         7.76700         2.25367
C         21.72189         8.48900         2.29690
C         22.98682        10.61602         2.69743
C         21.72110         9.86468         2.35589
C         22.97672        12.06215         2.18422
C         21.72379        12.68959         1.67191
C         23.03294        14.64321         0.76366
C         21.76043        14.00933         1.18158
C         23.04488        16.09902         0.51046
C         21.86919        16.80410         0.40738
C         23.16102        18.96992        -0.08168
C         21.85705        18.19667        -0.21719
C         23.20412        20.28897        -0.38906
C         21.96802        21.11883        -0.42038
C         23.26391        23.00535        -1.44312
C         21.97123        22.42644        -1.12168
C         23.25391        24.42085        -1.91579
C         21.99101        25.21460        -1.88380
C         23.22630        27.35967        -1.74596
C         21.96595        26.59353        -2.01119
C         23.29755        28.82259        -1.94144
C         21.98160        29.51315        -1.75613
C         23.33738        31.70989        -2.20449
C         22.04247        30.94775        -2.20752
C         23.32473        33.15049        -1.87512
C         22.10895        33.78546        -1.67488
C         23.39779        35.97875        -1.25697
C         22.06734        35.20640        -1.26443
C         23.31888        37.44590        -1.30217
C         22.05683        38.09883        -1.09566
C         23.29654        40.20753        -0.76459
C         22.01102        39.50172        -0.90156
C         23.26206        41.72833        -0.66470
C         21.96445        42.41747        -0.70760
C         23.17680        44.56574        -0.86199
C         21.97799        43.86261        -0.83053
C         23.17205        46.05194        -0.96400
C         21.86700        46.77428        -0.86068
C         23.15311        48.81945         0.00847
C         21.87240        48.21998        -0.47871
C         23.14271        50.26234         0.39550
C         21.86585        51.07023         0.20954
C         23.13562        52.99507         1.29249
C         21.89064        52.36136         0.99854
C         23.10109        54.27743         1.93730
C         21.85473        54.88353         2.21330
C         23.14306        56.86775         3.22554
C         21.82160        56.15557         2.95159
C         23.08257        58.30218         3.52847
C         21.83325        58.95989         3.66401
C         23.03420        61.00784         4.25591
C         21.83497        60.33158         4.02562
C         24.32582         4.12739         3.19929
C         25.56342         6.36972         3.19747
C         24.72284         5.41221         2.68988
C         25.51390         7.75291         2.74084
C         24.27030         8.44332         2.41792
C         25.50412        10.56637         2.34624
C         24.27556         9.85750         2.39043
C         25.54821        11.95918         2.04663
C         24.28405        12.70602         1.87026
C         25.61620        14.65120         1.00405
C         24.33837        13.92218         1.00329
C         25.65364        16.02053         0.49325
C         24.34392        16.76513         0.26239
C         25.69317        18.86395         0.09992
C         24.37223        18.26324         0.50347
C         25.70318        20.18302        -0.51385
C         24.48663        21.07984        -0.31671
C         25.78691        22.95166        -1.45282
C         24.46231        22.34213        -1.17454
C         25.84769        24.45793        -1.68236
C         24.55298        25.17470        -1.90381
C         25.78558        27.34731        -1.60478
C         24.50804        26.62529        -1.58015
C         25.77554        28.76162        -1.99407
C         24.49777        29.51187        -2.00396
C         25.78998        31.69135        -2.04618
C         24.58868        30.95673        -2.03360
C         25.77206        33.12815        -2.13182
C         24.58695        33.85674        -1.88275
C         25.77653        36.04065        -1.96656
C         24.61771        35.28543        -1.71574
C         25.74019        37.45299        -1.85151
C         24.53787        38.15425        -1.50421
C         25.70292        40.34221        -1.34053
C         24.54560        39.58276        -1.25527
C         25.70388        41.78019        -1.10639
C         24.48998        42.47897        -0.93084
C         25.69323        44.60822        -0.89545
C         24.46598        43.89186        -0.88914
C         25.70162        46.08089        -0.90271
C         24.42902        46.80200        -0.65544
C         25.67841        48.79817         0.16263
C         24.42878        48.10705        -0.26071
C         25.65481        50.25590         0.57688
C         24.41785        51.05881         0.24726
C         25.62452        53.01727         1.23041
C         24.38728        52.35739         1.01131
C         25.50025        54.39277         1.55738
C         24.34366        54.99717         2.12666
C         25.62557        56.95219         3.16089
C         24.40981        56.27497         2.74619
C         25.52692        58.25955         3.68102
C         24.30291        58.98903         3.75581
C         24.26080        60.35687         4.12991
C         26.69794         8.49041         2.84034
C         27.96391        10.59276         2.50099
C         26.74918         9.87280         2.53786
C         27.99495        11.97043         2.20187
C         26.75363        12.65024         1.92419
C         28.01762        14.75707         1.50110
C         26.77523        14.04554         1.50617
C         28.05209        16.14094         1.12766
C         26.88669        16.79673         0.69659
C         28.16925        18.88460         0.31328
C         26.89901        18.17997         0.31174
C         28.23007        20.26045        -0.01642
C         27.06790        20.85418        -0.67766
C         28.22551        23.12403        -0.46547
C         27.07433        22.31026        -0.97522
C         28.02701        24.59427        -0.35191
C         26.97113        25.24020        -1.13316
C         28.18392        27.38511        -0.97659
C         26.94967        26.65595        -1.21143
C         28.20474        28.84853        -1.23820
C         27.05779        29.52954        -1.90276
C         28.26854        31.69941        -1.93875
C         27.07202        31.02077        -1.92957
C         28.34933        33.13123        -2.31789
C         27.02071        33.85053        -2.47930
C         28.33010        36.05146        -2.49182
C         26.94381        35.36934        -2.69183
C         28.30577        37.54919        -2.33451
C         26.95058        38.23783        -2.20818
C         28.22876        40.45036        -1.71535
C         26.92582        39.71827        -1.90035
C         28.15604        41.73473        -0.95757
C         26.91130        42.51721        -1.04976
C         28.19569        44.60609        -0.55282
C         26.93237        43.91599        -0.86171
C         28.23095        46.00579        -0.35739
C         27.01215        46.78868        -0.60934
C         28.15541        48.82691         0.22773
C         26.96942        48.15312        -0.07890
C         28.07472        50.26600         0.33917
C         26.93387        51.01719         0.62259
C         28.09509        52.89562         1.84742
C         26.94165        52.37888         1.09991
C         28.06206        54.08854         2.65340
C         27.23058        55.19584         2.45382
C         26.89254        56.27347         3.28216
C         29.20517        12.70877         2.18370
C         30.45135        14.81841         1.91496
C         29.23183        14.08432         1.87238
C         30.51221        16.18014         1.58982
C         29.30069        16.86498         1.15873
C         30.64104        18.95675         0.68884
C         29.33971        18.19684         0.76209
C         30.43884        20.38756         1.19000
C         29.32887        21.08763         0.42417
C         30.46611        23.30340         0.67637
C         29.33301        22.47314         0.28981
C         30.48581        24.67473         0.48421
C         29.25549        25.40726         0.07237
C         30.64243        27.37201        -0.72243
C         29.31316        26.76608        -0.48395
C         30.74112        28.79207        -1.18649
C         29.49192        29.59287        -1.27063
C         30.86492        31.67853        -1.89474
C         29.54705        30.95516        -1.89219
C         30.90034        33.18761        -1.94296
C         29.62485        33.90315        -2.11928
C         30.85941        36.05632        -2.13363
C         29.57922        35.28048        -2.14790
C         30.81412        37.48668        -1.64477
C         29.52092        38.23680        -1.74664
C         30.76545        40.42634        -1.21554
C         29.54539        39.74197        -1.73271
C         30.70870        41.70283        -0.70892
C         29.40792        42.39440        -0.50985
C         30.58062        44.51131         0.04345
C         29.39164        43.86502        -0.34733
C         30.57250        45.90078         0.33915
C         29.39759        46.68012         0.12102
C         30.53679        48.66887         1.08462
C         29.40076        48.10088         0.39554
C         30.54857        49.94946         1.73994
C         29.72385        51.02147         1.37387
C         29.25009        52.09712         2.13961
C         31.71961        16.91384         1.71448
C         32.92643        19.05061         1.68021
C         31.79290        18.28812         1.41299
C         32.94571        20.48440         1.50268
C         31.73866        21.14458         1.19075
C         32.95446        23.35526         1.43913
C         31.66324        22.60661         1.23578
C         32.98574        24.82501         1.15873
C         31.70425        25.49935         0.73104
C         33.16380        27.37044        -0.44556
C         31.81710        26.82984         0.03233
C         33.14786        28.88347        -0.57056
C         31.98204        29.55978        -0.97509
C         33.21815        31.62767        -1.13237
C         32.02034        30.93001        -1.30681
C         33.36319        32.89705        -1.92119
C         32.12362        33.83339        -1.88235
C         33.39955        36.16907        -1.70998
C         32.19497        35.32552        -2.07770
C         33.29887        37.61001        -1.46022
C         32.08935        38.25051        -1.50425
C         33.20921        40.31926        -0.70142
C         32.08227        39.77418        -1.57519
C         33.10703        41.64497        -0.02049
C         31.86262        42.40838        -0.18861
C         32.98215        44.38693         0.76470
C         31.80332        43.73667         0.20507
C         32.91356        45.73890         1.12820
C         31.73967        46.51171         0.91903
C         31.66941        47.85011         1.32641
C         34.16638        21.20402         1.63453
C         35.45648        23.28037         1.32634
C         34.24405        22.61176         1.45901
C         35.55516        24.65841         0.72151
C         34.29870        25.48180         0.91348
C         35.54951        27.49184         0.32102
C         34.35528        26.84255         0.32100
C         35.60342        28.87852        -0.18717
C         34.32524        29.61405        -0.35892
C         35.49619        31.81678        -0.00644
C         34.34242        31.00658        -0.55819
C         35.57407        33.19322        -0.63868
C         34.68777        33.51718        -1.60980
C         35.83838        36.34178        -1.24020
C         34.68651        35.71878        -1.85405
C         35.85331        37.69978        -1.16831
C         34.61887        38.41963        -1.70197
C         35.76256        40.47335        -0.34873
C         34.57719        39.85107        -1.06937
C         35.54042        41.65083         0.48807
C         34.32858        42.33985         0.45880
C         34.19266        43.66547         0.91683
C         36.78013        25.49241         1.04811
C         38.00660        27.63460         0.84293
C         36.78990        26.84156         0.77932
C         38.08133        28.95409         0.44097
C         36.88140        29.63384        -0.11096
C         38.03069        31.79225        -0.08107
C         36.84703        31.11473        -0.12309
C         38.04055        33.28116        -0.01113
C         36.75359        34.03198        -0.24544
C         38.16704        36.17940        -0.39546
C         36.77053        35.57989        -0.30644
C         38.22853        37.55076        -0.45364
C         37.02455        38.36207        -0.59223
C         36.99893        39.68155        -0.22904
C         39.29227        29.72827         0.43656
C         40.51473        31.84736         0.08071
C         39.29253        31.07869         0.11637
C         40.53410        33.20753        -0.07237
C         39.33145        33.99829        -0.13817
C         39.35192        35.36705        -0.29813
O         28.14403        25.14843         0.99644
O         37.20239        33.70255         1.13668
O         15.35227        37.67163         0.96061
O         14.23899        26.09447        -2.98697
O         25.07282        16.26436        -0.87530
O         30.33729        31.04805        -3.11358
O         22.46336        56.05022         4.26217
O         34.62058        38.62442        -3.07363
O         20.05479        24.59421        -3.26278
O         23.41904        40.87689         0.53677
O         21.49780        21.26033         0.99550
O         33.70752        25.50411         2.24537
O         26.48752        46.67041        -1.99508
O         24.08953         5.77691         1.47832
O         31.51616        26.77492         1.44435
O         26.41407        20.15358        -1.78493
O         14.16559        35.04537        -2.55789
O         18.14032        49.77529        -1.25140
O         32.91511        40.34514         0.71286
O         28.58068        36.96047        -3.62487
O         22.67591        31.28001        -3.47172
O         10.94879        35.75851        -1.68164
O         14.73645        31.29525        -2.88908
O         19.72312        43.97313        -1.90522
O          8.60631        33.00158        -0.58081
O         18.47378        21.27364         0.77490
O         23.07682        49.25912         1.42464
O         23.95145        24.77896        -3.16711
O         29.03835        40.43390        -2.92501
O         28.68419        29.59692        -0.05241
O         25.56650        49.25013         1.60409
O         26.54788        55.21782         1.20302
O         12.77815        23.68332        -2.59394
O         22.81820        35.42975        -0.02189
O         23.68396        13.82585        -0.30121
O         18.41671        18.78022         1.35052
O         27.72709        33.28889        -3.64302
O          8.51415        31.46801         2.86915
O         18.93793        35.17862        -0.02662
O         16.46131        41.76344         1.39000
O         23.61644        12.97692         3.16548
O         34.98347        34.53199        -2.52026
O         11.09987        31.50635         1.92824
O         28.56586        41.63875         0.46029
O         23.70982        26.96931        -0.36514
O         26.66096        28.97180        -3.18741
O         19.58649        10.37875         3.47501
O         30.85617        27.68713        -2.13833
O          9.84376        27.19521        -1.01632
O         36.44403        29.03138        -1.40188
O         21.08269        48.99008        -1.47143
O         31.62604        35.80662        -3.34603
O         29.24461        50.96318         0.04257
O         26.04182        23.51056        -2.77418
O         28.19195        22.66544        -1.85409
O         16.79569        38.92208        -2.03848
O         32.08332        23.08527         2.58549
O         12.97990        41.12924        -1.37766
O         22.50115        46.55315        -2.17567
O         17.62869        33.88400        -3.10495
O         13.05971        30.27845         1.03425
O         29.92151        37.64652        -0.46642
O         16.78707        18.05711        -2.00158
O         26.71446        39.22354        -3.25953
O         35.36345        40.81999        -1.76178
O         17.74674        45.71901        -1.97542
H         17.87010        46.55191        -2.47576
O         36.24120        36.00457         0.99133
H         36.67431        35.43955         1.67253
O         21.72722        29.55024        -0.32623
H         22.07681        28.72577         0.07640
O         24.53145        51.39395        -1.16400
H         23.64666        51.73107        -1.45673
O         21.77384        51.48199        -1.17699
H         21.47251        50.69499        -1.70274
O         24.60453        21.53099         1.07696
H         23.71423        21.83600         1.36616
O         33.32236        26.80609        -1.77751
H         34.09681        27.23001        -2.20460
O         24.22644        18.41681         1.95036
H         24.23385        19.37980         2.14832
O         22.98105        10.68540         4.15492
H         23.39127        11.54993         4.39679
O         20.74282        49.92706         2.04463
H         20.87282        50.76730         2.53201
O         18.63050        44.91000         1.46393
H         18.90804        44.06593         1.90068
O         21.03517        28.90633        -3.86635
H         20.36051        28.37909        -4.34307
O         35.22163        31.90682         1.41695
H         35.88926        32.53665         1.78516
O         32.37286        40.13371        -2.94358
H         33.19724        39.62222        -3.22082
O         15.86386        20.22052        -3.05663
H         16.44067        19.46656        -3.31640
O         30.02376        20.30343         2.58300
H         30.14181        21.18646         2.99447
O         31.01718        19.07080        -0.70893
H         31.08348        18.16889        -1.08554
O         19.42717         5.65097         2.70114
H         19.60689         5.88735         3.63402
O         15.80757        35.16806         0.75850
H         15.67343        35.88145         1.42683
O         35.61874        24.41415        -0.73113
H         36.48421        23.99928        -0.93123
O         21.70374        17.94342        -1.66643
H         22.46756        17.40132        -1.96226
O         19.76618        42.46396         1.44420
H         19.78573        41.55516         1.81424
O         19.35070        47.73340         1.56253
H         19.03846        46.80267         1.68584
O         33.43237        32.46763        -3.31053
H         33.69749        33.25028        -3.84246
O         26.56909        35.54722        -4.07140
H         27.19444        35.01821        -4.61612
H          5.36418        30.93872         2.14854
H          5.23936        33.38149         1.94721
H          8.00869        26.72645         1.68481
H          6.76846        28.75714         1.95750
H          6.43094        35.59962         1.71137
H          7.57365        37.75388         1.39804
H         10.13119        22.54362         0.17634
H          9.16498        24.55345         0.92708
H          8.77770        39.94736         1.24502
H          9.94404        42.07679         1.12224
H         12.38685        18.30703        -0.63272
H         11.26031        20.37554        -0.27201
H         11.16919        44.28483         1.11995
H         12.38167        46.41865         0.99247
H         14.73749        14.12164         0.22674
H         13.55940        16.21173        -0.37058
H         13.54795        48.55501         0.84785
H         14.73730        50.71773         0.86606
H         17.09965         9.98821         1.35390
H         15.90521        12.07070         0.93760
H         15.96771        52.85661         1.20210
H         17.21918        54.88914         1.78819
H         20.13610         6.03813         0.81678
H         18.37464         7.82590         1.74125
H         18.43613        56.86637         2.54779
H         19.66810        58.85123         3.39930
H         22.89842         2.58085         3.35834
H         20.97129         3.67244         2.52637
H         23.01038        62.06853         4.54256
H         20.87732        60.86243         4.12320
H         25.03036         3.56696         3.83217
H         26.26443         6.12471         4.00929
H         26.45038        58.75978         4.00901
H         25.19917        60.89568         4.32213
H         27.62799         7.97223         3.11668
H         28.90817        10.06283         2.69582
H         28.78371        54.14254         3.48233
H         27.56804        56.58646         4.09120
H         30.14718        12.19782         2.43223
H         31.36997        14.29944         2.22654
H         31.21119        50.05978         2.61184
H         29.80495        52.34754         3.05685
H         32.60307        16.41031         2.13669
H         33.82239        18.56410         2.09547
H         33.79648        46.22301         1.57127
H         32.53187        48.29071         1.84795
H         35.09799        20.63570         1.77399
H         36.38359        22.68500         1.37236
H         36.39146        42.06712         1.04984
H         35.07681        44.19075         1.30874
H         37.71509        24.98162         1.32847
H         38.92193        27.13200         1.19310
H         39.20043        38.06429        -0.38794
H         37.88292        40.15287         0.22603
H         40.24090        29.23537         0.69898
H         41.46551        31.30204         0.17436
H         41.49824        33.73518        -0.12114
H         40.32517        35.87809        -0.37120
