         349
 CSIRO Nanostructure Databank - Neutral Graphene Oxide Data Set
C          1.18984         2.03538        -0.42653
C          1.17588         3.45265        -0.46456
C          2.37158         1.34462        -0.30576
C          2.34858         4.19074        -0.34208
C          1.38303         6.29393        -1.22072
C          1.41922         7.70606        -1.44567
C          2.34851         5.64507        -0.48646
C          2.41915         8.50249        -0.95564
C          1.21659        10.65258        -1.30805
C          1.18771        12.03876        -1.26821
C          2.42392         9.95015        -1.11215
C          2.37884        12.78332        -1.14106
C          1.20147        14.92772        -0.68696
C          1.17864        16.34869        -0.46555
C          2.34464        14.23612        -0.99620
C          2.32675        17.09490        -0.46412
C          2.36902        18.51165        -0.13094
C          3.61702         2.04474        -0.17983
C          3.59999         3.49518        -0.15402
C          4.81808         1.34904        -0.06701
C          4.80511         4.19509        -0.01441
C          3.49767         6.41912         0.04267
C          3.50293         7.95097        -0.06032
C          4.80369         5.66594         0.17767
C          4.85976         8.56751        -0.38951
C          3.64211        10.66966        -1.00130
C          3.62040        12.08290        -1.11808
C          4.89644         9.94507        -0.73700
C          4.87379        12.82538        -1.04728
C          3.62174        14.99178        -1.28542
C          3.62009        16.43535        -0.76525
C          4.86590        14.18757        -0.92768
C          4.83409        17.09024        -0.19469
C          3.49487        19.13954         0.28132
C          4.75851        18.37730         0.60482
C          6.07083         2.02874         0.09029
C          6.04677         3.49435         0.06422
C          7.24333         1.32885         0.31130
C          7.24387         4.21502         0.04783
C          6.07529         6.40275         0.01975
C          6.06768         7.85173        -0.20816
C          7.24371         5.64863        -0.04899
C          7.29659         8.56512        -0.29784
C          6.13102        10.62973        -0.81001
C          6.13771        12.03257        -1.36796
C          7.34904         9.95025        -0.57308
C          7.44758        12.79108        -1.14007
C          6.09485        14.87230        -0.45715
C          6.07681        16.29722         0.01799
C          7.41686        14.28735        -0.77504
C          7.33127        17.05381         0.09659
C          6.04806        19.14565         0.41987
C          7.28055        18.48571         0.26269
C          8.50168         2.04594         0.73908
C          8.50780         3.43827         0.10437
C          9.81693         1.34931         0.39501
C          9.81593         4.14105         0.03681
C          8.51822         6.34628        -0.33757
C          8.55799         7.82354        -0.11949
C          9.82711         5.60450        -0.29215
C          9.86553         8.52483        -0.35312
C          8.64581        10.65031        -0.66458
C          8.67308        12.07905        -0.83286
C          9.85623         9.96791        -0.62243
C          9.88363        12.80361        -0.52478
C          8.60727        14.95108        -0.23969
C          8.55904        16.35520         0.05623
C          9.83847        14.25384        -0.24196
C          9.78229        17.08139         0.19421
C          8.51980        19.19287         0.30545
C          9.76276        18.51842         0.28508
C         11.01765         2.01640         0.43304
C         10.96178         3.49389         0.81253
C         12.29427         1.36987         0.23573
C         12.26648         4.26565         0.67482
C         11.09417         6.32760        -0.30828
C         11.09096         7.72612        -0.65615
C         12.33817         5.64336         0.08020
C         12.44471         8.53350        -0.51736
C         11.17586        10.69269        -0.85174
C         11.07571        12.11136        -0.37539
C         12.39132         9.96488        -0.28582
C         12.25007        12.77624         0.30910
C         11.02334        14.95723         0.02843
C         11.01803        16.37778         0.19795
C         12.33149        14.22710        -0.14830
C         12.22902        17.10906         0.36551
C         10.99698        19.21958         0.32507
C         12.23400        18.53315         0.37536
C         13.50452         2.01832         0.45110
C         13.49007         3.42049         1.02755
C         14.77960         1.36991         0.40923
C         14.78118         4.13742         0.64138
C         13.64809         6.29316        -0.36265
C         13.57479         7.75068         0.04134
C         14.87528         5.55721         0.18520
C         14.83112         8.49317         0.44350
C         13.57805        10.63901         0.04872
C         13.58684        12.08629         0.10992
C         14.82338         9.94755         0.27065
C         14.77745        12.79056         0.12090
C         13.50788        14.89180         0.51677
C         13.48155        16.39803         0.64679
C         14.79778        14.21125         0.35084
C         14.75867        17.10420         0.59183
C         13.49002        19.21886         0.45422
C         14.72620        18.54443         0.51430
C         15.98742         1.99830         0.75646
C         16.00393         3.45499         1.22037
C         17.23810         1.35053         0.63962
C         17.32070         4.12079         0.72674
C         16.12242         6.31251         0.53448
C         16.10530         7.76876         0.54476
C         17.27996         5.62598         0.82780
C         17.27981         8.51220         0.67957
C         16.05946        10.62088         0.25591
C         16.08530        12.07903        -0.15468
C         17.26705         9.92166         0.47108
C         17.29924        12.82069         0.36957
C         15.98482        14.93709         0.51136
C         15.96110        16.38434         0.60366
C         17.24837        14.23448         0.53432
C         17.20844        17.10811         0.65401
C         15.96314        19.24347         0.51907
C         17.19333        18.56712         0.60329
C         18.48884         1.98672         0.83713
C         18.53009         3.42136         1.37876
C         19.66335         1.29835         0.52311
C         19.82498         4.20391         1.18824
C         18.60776         6.35472         0.77280
C         18.50021         7.81408         1.25659
C         19.81240         5.57039         1.30099
C         19.80917         8.54078         1.01110
C         18.56801        10.64125         0.17181
C         18.51450        12.13130         0.45642
C         19.82029         9.96164         0.69955
C         19.73102        12.85618         0.58440
C         18.45174        14.97020         0.70826
C         18.41129        16.41535         0.75973
C         19.68430        14.26404         0.68136
C         19.65097        17.19548         0.96691
C         18.41255        19.28907         0.55344
C         19.66563        18.64401         0.65536
C         20.93495         1.91635         0.59850
C         21.05268         3.41461         0.78451
C         22.12692         1.27061         0.30221
C         22.32756         3.69496         1.52221
C         20.95320         6.45984         1.84983
C         20.96720         7.86293         1.29118
C         22.32141         5.82185         1.86949
C         22.26520         8.56468         1.30237
C         21.00009        10.68468         0.77512
C         21.00517        12.14302         0.66634
C         22.28043        10.00689         0.96766
C         22.19156        12.82735         0.80604
C         20.94059        15.02127         0.61101
C         20.96643        16.46977         0.95759
C         22.24176        14.28443         0.66002
C         22.19387        17.19343         0.59699
C         20.88210        19.29837         0.44029
C         22.14703        18.60840         0.34017
C         23.41450         1.93401         0.35618
C         23.50851         3.24342         1.00423
C         24.56242         1.25227         0.03776
C         24.78300         3.99502         1.17734
C         23.51385         6.30363         1.40162
C         23.55798         7.78640         1.31061
C         24.79558         5.51733         1.37390
C         24.81388         8.46864         0.94067
C         23.47470        10.67323         0.97221
C         23.46895        12.15816         1.22976
C         24.80878         9.97333         1.18089
C         24.69133        12.91248         0.74431
C         23.46344        15.06404         1.11957
C         23.41697        16.47895         0.52627
C         24.71008        14.26522         0.77499
C         24.55164        17.09933         0.02789
C         23.30782        19.26739        -0.06828
C         24.56059        18.53515        -0.46928
C         25.87726         1.91190         0.07134
C         26.00012         3.34838         0.55342
C         26.87528         1.35748        -0.85759
C         26.99489         4.22411        -0.12755
C         26.14001         6.28591         1.12418
C         25.97969         7.78361         0.80157
C         27.08373         5.59588         0.11197
C         27.25135         8.53510         0.57852
C         25.91522        10.66978         0.40808
C         25.88728        12.17040         0.28712
C         27.21883         9.98447         0.29658
C         27.17685        12.88487         0.17208
C         25.97906        15.00800         0.63114
C         25.85578        16.43281         0.17901
C         27.25782        14.25932         0.43251
C         26.92457        17.17382        -0.60736
C         25.83378        19.22140         0.00498
C         27.06476        18.59133        -0.12261
C         27.87671         2.12911        -1.36093
C         27.84351         3.59797        -1.15082
C         28.92255         1.55745        -2.17991
C         29.06630         4.38809        -1.64859
C         28.23317         6.33799        -0.35876
C         28.44181         7.76129         0.02603
C         29.25829         5.72972        -1.09404
C         29.52269         8.53132        -0.63197
C         28.32385        10.67241        -0.17775
C         28.33495        12.13573        -0.21401
C         29.51548         9.95062        -0.61917
C         29.49036        12.84055        -0.58258
C         28.52474        14.93017         0.32252
C         28.78666        16.30451         0.68427
C         29.59346        14.24513        -0.35498
C         29.71756        17.06565        -0.07110
C         28.34447        19.18490         0.04993
C         29.58725        18.50349        -0.15499
C         30.04221         2.25650        -2.52779
C         30.22099         3.63153        -2.15269
C         31.45068         4.26709        -2.21558
C         30.51304         6.37853        -1.37281
C         30.59844         7.82865        -1.22304
C         31.57609         5.63341        -1.88280
C         31.67579         8.55142        -1.76519
C         30.60050        10.65425        -1.19897
C         30.56470        12.15434        -1.39011
C         31.66883         9.94141        -1.75378
C         31.90262        12.83444        -1.23270
C         30.79139        14.94749        -0.71038
C         30.80565        16.37684        -0.69332
C         31.96933        14.16982        -1.02335
C         31.87254        17.16547        -1.20242
C         30.71050        19.22700        -0.61555
C         31.83299        18.55470        -1.11565
O         15.01914         4.40115        -0.77418
O         12.26318         5.43966         1.53961
O         28.34095         8.09528         1.44548
O         13.80822         8.00566         1.43337
O         21.28200         3.86968        -0.55174
O         11.89648         8.13182        -1.80601
O          9.33225         3.39440        -1.11869
O         13.30084        15.48220         1.81652
O         27.84070         4.28755        -2.44356
O         26.03468        16.09599         1.63584
O          7.59362        13.84865        -2.15849
O         26.49757         2.25146         1.38594
O         21.70747        14.75995        -0.62362
O          9.11676         5.90673        -1.58938
O         24.97915         4.58314         2.49719
O          4.51111        17.28115        -1.60362
O         20.34613        16.83650         2.22528
O          9.37866         8.22142         1.02640
O         25.51715        11.29253        -0.85347
O         27.35476        16.74059        -1.66022
O          5.97280        15.19039         0.98246
O          3.97196         6.01768         1.36759
O         13.38358         3.23683         2.43220
O         23.01595         8.35774         2.58096
O         22.29588         4.60846         2.57064
O         24.60661        18.52632        -1.94193
H         23.83017        18.02293        -2.26647
O         18.24477         7.83348         2.67896
H         19.02999         7.43458         3.13836
O         26.83863         6.27951         2.38547
H         26.52614         5.48475         2.88185
O         11.96032        12.77619         1.73138
H         11.98367        11.85136         2.05483
O         25.14571        10.12267         2.59843
H         24.55854         9.48813         3.08092
O         15.91412         3.52893         2.64793
H         14.93988         3.36083         2.88201
O         30.18269        12.34243        -2.80170
H         30.10508        13.30843        -2.95469
O         13.72486         6.29017        -1.79550
H         14.05862         5.40902        -2.07816
O         20.59140         6.59654         3.27319
H         20.76751         5.72465         3.69398
O         10.68631         3.54803         2.23614
H         11.58909         3.43895         2.66639
O         23.38176        15.20607         2.55139
H         24.22497        15.60915         2.85251
O          3.18467         8.46075         1.26924
H          3.56275         7.81226         1.90939
O         18.88844         6.45253        -0.65728
H         19.02702         5.53638        -0.99405
O         12.62517        14.24796        -1.56760
H         12.01403        13.62480        -2.01872
O          3.67448        15.09279        -2.74222
H          4.19617        15.90265        -2.94955
O         18.66698        10.54966        -1.30619
H         19.53185        10.93222        -1.57019
O          4.68652        17.99514         2.01367
H          4.73096        18.81082         2.55450
O         16.24973        12.07071        -1.61048
H         17.06381        11.53942        -1.79935
O         17.53469         3.83152        -0.68003
H         16.71646         4.09563        -1.16914
O         18.47637         3.33327         2.81800
H         17.53222         3.23200         3.10310
O          6.04170        11.83869        -2.81263
H          6.30016        12.69221        -3.22962
O         11.38669        10.76651        -2.30687
H         11.54296         9.83993        -2.61408
O          8.41322         2.13756         2.18305
H          9.23767         2.59612         2.50077
O         28.33728        16.90428         1.79551
H         27.61297        16.38707         2.22601
O         23.51325        12.28325         2.69122
H         24.20502        11.64693         3.00652
H          0.23917         1.49097        -0.51323
H          0.21279         3.96768        -0.58624
H          2.37879         0.24523        -0.30160
H          0.56270         5.72163        -1.67559
H          0.62229         8.14465        -2.06322
H          0.27356        10.09770        -1.40748
H          0.22163        12.55485        -1.35114
H          0.25363        14.38790        -0.54930
H          0.21802        16.82284        -0.21794
H          1.42973        19.08019        -0.21972
H          4.80673         0.24889        -0.05234
H          3.46332        20.21315         0.52487
H          7.21323         0.22898         0.35943
H          6.04607        20.23442         0.58671
H          9.80377         0.26537         0.19499
H          8.50603        20.28908         0.39781
H         12.29165         0.30363        -0.04495
H         10.98948        20.31923         0.34393
H         14.81596         0.31414         0.09065
H         13.48692        20.31899         0.44524
H         17.24744         0.30035         0.30040
H         15.95782        20.34204         0.45827
H         19.59305         0.27407         0.11940
H         18.37870        20.37813         0.39868
H         22.12109         0.18974         0.08576
H         20.86822        20.37766         0.22454
H         24.50476         0.23857        -0.38700
H         23.25693        20.34230        -0.30024
H         26.81720         0.28694        -1.10627
H         25.76496        20.22778         0.44716
H         28.83548         0.49338        -2.44384
H         28.38290        20.28186         0.15378
H         30.85908         1.75319        -3.06551
H         32.33139         3.71706        -2.57660
H         32.55284         6.10984        -2.03844
H         32.51704         8.02912        -2.23868
H         32.49733        10.47771        -2.23503
H         32.82443        12.27126        -1.43366
H         32.94573        14.67661        -1.03398
H         32.73862        16.67880        -1.67172
H         30.66377        20.32429        -0.66815
H         32.67731        19.14141        -1.50465
