         429
 CSIRO Nanostructure Databank - Neutral Graphene Oxide Data Set
C          2.69119         2.05884         2.80920
C          2.93849         3.35931         3.26125
C          3.63814         1.37784         2.05538
C          4.16084         4.00573         2.96936
C          3.58979         6.00365         4.36246
C          3.80449         7.30719         4.76896
C          4.45248         5.36639         3.44131
C          4.88426         8.06280         4.25216
C          4.44025        10.00409         5.76454
C          4.79330        11.24569         6.24577
C          5.16050         9.40649         4.70179
C          5.92405        11.94659         5.74164
C          5.59174        13.84009         7.36068
C          5.86567        15.16663         7.78243
C          6.28081        13.23733         6.32084
C          6.74064        15.99382         7.07708
C          6.96710        17.36856         7.43775
C          4.86641         2.00587         1.71845
C          5.10928         3.33283         2.18000
C          5.84176         1.32948         0.93304
C          6.45449         3.95157         1.93813
C          5.56862         6.08263         2.94377
C          5.76469         7.44694         3.31948
C          6.48706         5.46050         2.00690
C          6.78761         8.23347         2.68709
C          6.21998        10.14367         4.10195
C          6.63282        11.38707         4.65362
C          6.93434         9.57232         2.98742
C          7.99592        11.91315         4.22260
C          7.38424        14.00125         5.70853
C          7.43687        15.46689         5.93213
C          8.20773        13.37711         4.63359
C          8.26406        16.27345         5.17372
C          7.83187        18.14962         6.72577
C          8.51478        17.64047         5.56131
C          6.98373         2.01174         0.43577
C          7.16801         3.37071         0.76132
C          7.95542         1.31966        -0.37438
C          8.41460         4.07759         0.32294
C          7.45852         6.18597         1.34972
C          7.83035         7.57194         1.82364
C          8.32311         5.58758         0.34669
C          8.41108         8.48126         0.76357
C          7.65559        10.50919         2.04569
C          8.33102        11.65520         2.76557
C          8.53019         9.83805         0.99196
C          9.20923        12.42141         2.06368
C          8.81327        14.30107         3.61771
C          8.86916        15.76284         3.92414
C          9.82618        13.67189         2.67230
C          9.84418        16.59641         3.19319
C          9.40124        18.42326         4.83460
C         10.06376        17.95503         3.64402
C          8.99706         2.00839        -0.99361
C          8.93981         3.49307        -0.96464
C         10.02233         1.40948        -1.73878
C          9.88240         4.29955        -1.79169
C          9.10752         6.36661        -0.47159
C          9.04221         7.84773        -0.39335
C          9.91410         5.78468        -1.58006
C         10.14518         8.68992        -1.12936
C          9.41627        10.68375         0.21451
C          9.58955        12.04581         0.70487
C         10.33171        10.09541        -0.71459
C         10.20299        13.03400        -0.05244
C         10.38360        14.68952         1.68637
C         10.49633        16.07036         2.07828
C         10.75385        14.26889         0.41259
C         11.14944        17.00071         1.14154
C         10.96021        18.77467         2.97356
C         11.44260        18.41102         1.64464
C         11.08943         2.17057        -2.29025
C         11.07161         3.62039        -2.35699
C         12.24099         1.49517        -2.70798
C         12.18755         4.34181        -2.77216
C         11.02437         6.57677        -2.22641
C         11.26634         7.96093        -1.75558
C         12.10600         5.85054        -3.04242
C         12.49700         8.56390        -1.95248
C         11.48245        10.73444        -1.28092
C         11.54234        12.16126        -1.43822
C         12.61490         9.99130        -1.74425
C         12.69617        12.89383        -1.54975
C         11.66373        15.06610        -0.49758
C         11.95830        16.45027        -0.00905
C         12.69986        14.42003        -1.53367
C         13.26833        17.08160        -0.28453
C         12.60238        19.08320         1.06707
C         13.50135        18.40709         0.22671
C         13.41507         2.20231        -3.03520
C         13.40992         3.64858        -3.10176
C         14.60101         1.48433        -3.24587
C         14.60278         4.32263        -3.44511
C         13.46523         6.52836        -2.98126
C         13.62215         7.84072        -2.55803
C         14.55965         5.81857        -3.74269
C         14.87934         8.54342        -2.72932
C         13.79877        10.67122        -2.11165
C         13.83020        12.14451        -2.10528
C         14.96901         9.94937        -2.51656
C         15.12074        12.88372        -2.35416
C         14.13284        14.98239        -1.36298
C         14.31221        16.34387        -0.90137
C         15.24414        14.27774        -1.84525
C         15.60340        16.95554        -1.02704
C         14.74762        19.03530        -0.04044
C         15.79235        18.32358        -0.62192
C         15.81684         2.15452        -3.47087
C         15.81656         3.59807        -3.61513
C         17.01179         1.42141        -3.53582
C         17.05999         4.24133        -3.88070
C         15.90909         6.47526        -3.61007
C         16.03315         7.80877        -3.22388
C         17.06361         5.72032        -4.21710
C         17.30507         8.47728        -3.33447
C         16.21615        10.66152        -2.68061
C         16.32908        12.04997        -2.53094
C         17.49400         9.86412        -2.77904
C         17.57000        12.74109        -2.72210
C         16.55272        14.87118        -1.93300
C         16.70984        16.23455        -1.55388
C         17.67269        14.15050        -2.47606
C         17.98794        16.87007        -1.69127
C         17.06109        18.95161        -0.78561
C         18.14114        18.26175        -1.31104
C         18.25687         2.06442        -3.74844
C         18.25765         3.50906        -3.93885
C         19.43329         1.32629        -3.80028
C         19.53109         4.16986        -4.06256
C         18.39420         6.36953        -3.97287
C         18.45093         7.77509        -3.75088
C         19.57016         5.60980        -4.03623
C         19.71767         8.44929        -3.90915
C         18.62692        10.63300        -3.43227
C         18.67164        12.01879        -3.29159
C         19.77883         9.90097        -3.89560
C         19.80023        12.79186        -3.84225
C         18.91602        14.83675        -2.70575
C         19.06495        16.17472        -2.26369
C         20.00882        14.19371        -3.42254
C         20.44011        16.80968        -2.29990
C         19.35938        18.95412        -1.59703
C         20.41520        18.32999        -2.24175
C         20.74656         1.94295        -4.16831
C         20.73844         3.44379        -4.00844
C         21.89294         1.28535        -3.45155
C         21.97737         4.11404        -3.85268
C         20.83887         6.27123        -4.04034
C         20.86747         7.69445        -4.11503
C         22.03912         5.53035        -3.94883
C         22.15920         8.32814        -4.40705
C         20.97472        10.55510        -4.19488
C         21.02977        12.00604        -4.32530
C         22.23148         9.83506        -4.46202
C         22.32711        12.69340        -4.36875
C         21.15259        14.88707        -3.82612
C         21.24999        16.28558        -3.45953
C         22.26807        14.17834        -4.68468
C         22.07037        17.18633        -4.09716
C         21.51477        19.08735        -2.71504
C         22.44539        18.49050        -3.58746
C         23.03627         1.96568        -3.10619
C         23.14728         3.39877        -3.39784
C         24.16364         1.28987        -2.52079
C         24.32130         4.08088        -3.12290
C         23.32108         6.20634        -3.90244
C         23.37993         7.57412        -4.12508
C         24.49889         5.45937        -3.51107
C         24.65693         8.28309        -4.24854
C         23.52730        10.51606        -4.19454
C         23.52543        11.98404        -4.20200
C         24.69313         9.77025        -4.10442
C         24.78746        12.65900        -4.13360
C         23.65631        14.79940        -4.58548
C         23.78449        16.15760        -4.83909
C         24.85617        14.06668        -4.31787
C         24.92804        16.92408        -4.51898
C         23.69391        19.06722        -3.91738
C         24.87971        18.36891        -4.29887
C         25.33091         1.95775        -2.16058
C         25.34341         3.46999        -2.20568
C         26.41664         1.30009        -1.53790
C         26.70962         4.07661        -2.35489
C         25.74774         6.08751        -3.40986
C         25.90209         7.46071        -3.92765
C         26.87388         5.38830        -2.79489
C         27.17149         8.21232        -3.67261
C         25.98252        10.40810        -3.86440
C         25.99735        11.91378        -3.64850
C         27.14680         9.69927        -3.67764
C         27.31852        12.53968        -4.06695
C         26.10820        14.78430        -4.31555
C         26.12873        16.18913        -4.37090
C         27.39001        14.03567        -4.31258
C         27.39917        16.94442        -4.38860
C         26.10182        19.05945        -4.16097
C         27.35709        18.40281        -4.15058
C         27.59743         1.99462        -1.18087
C         27.81376         3.33241        -1.77424
C         28.59578         1.45713        -0.36184
C         28.99018         4.18733        -1.22356
C         28.07400         6.11946        -2.43687
C         28.28398         7.49268        -2.95673
C         28.95495         5.62138        -1.48076
C         29.41142         8.28936        -2.35937
C         28.52545        10.36534        -3.69871
C         28.49351        11.86317        -3.56139
C         29.54637         9.73686        -2.73056
C         29.81401        12.56479        -3.42781
C         28.64586        14.73315        -3.90742
C         28.69036        16.19634        -4.08420
C         29.72815        14.08032        -3.37084
C         29.79453        16.95596        -3.49936
C         28.54950        19.07511        -3.88897
C         29.75583        18.38621        -3.53406
C         29.62626         2.26522         0.22202
C         29.72289         3.65670        -0.07429
C         30.52251         1.73435         1.18637
C         30.46831         4.52908         0.74802
C         29.84078         6.48401        -0.71153
C         29.99717         7.79997        -1.09348
C         30.54206         5.96419         0.45776
C         30.75703         8.74499        -0.27461
C         30.41992        10.60005        -1.88495
C         30.51082        12.08977        -2.13083
C         31.12631        10.05404        -0.85723
C         31.94963        12.66544        -2.05600
C         30.84314        14.81882        -2.77298
C         30.84486        16.26553        -2.85524
C         31.85902        14.18052        -2.04298
C         31.92385        17.01019        -2.29762
C         30.87335        19.10390        -3.06820
C         31.96143        18.44104        -2.45631
C         31.32375         2.58059         1.95060
C         31.21548         3.98226         1.81400
C         32.42094         2.04611         2.83306
C         31.79780         4.87229         2.84999
C         31.33388         6.79260         1.23829
C         31.45579         8.23852         0.96451
C         31.93369         6.32851         2.50686
C         32.60394         9.01629         1.52664
C         32.29209        10.75092        -0.26177
C         32.70310        12.06399        -0.85673
C         32.89062        10.26981         1.00660
C         33.64177        12.92017        -0.09336
C         32.88639        14.92497        -1.37805
C         32.94238        16.35013        -1.55511
C         33.82388        14.30312        -0.49648
C         33.98805        17.11021        -0.96213
C         33.05733        19.16919        -1.94107
C         34.06915        18.53177        -1.19290
C         32.54692         2.76601         4.19936
C         32.49836         4.31011         4.04967
C         33.79962         2.25667         4.83090
C         33.43406         5.22514         4.88836
C         32.98952         7.17738         3.20231
C         33.38445         8.46611         2.60029
C         33.87963         6.53969         4.19890
C         34.51418         9.15850         3.12102
C         33.84123        11.18198         1.73424
C         34.36127        12.35545         0.92865
C         34.86016        10.45439         2.59034
C         35.59697        13.03152         1.36534
C         34.82024        15.08115         0.15719
C         34.93945        16.47833        -0.11731
C         35.74808        14.47513         1.06772
C         35.98646        17.23500         0.48700
C         35.14404        19.26186        -0.64074
C         36.10667        18.64078         0.18749
C         34.79308         3.07545         5.34952
C         34.65880         4.48506         5.38181
C         36.01475         2.43905         5.83883
C         35.62207         5.27404         6.14751
C         34.93670         7.27745         4.70792
C         35.29931         8.57942         4.16847
C         35.70236         6.74711         5.87613
C         36.41164         9.32317         4.69842
C         35.96691        11.13768         3.07719
C         36.42636        12.39996         2.44285
C         36.73452        10.61448         4.16840
C         37.40171        13.24797         3.14050
C         36.77144        15.21249         1.65543
C         36.90956        16.61072         1.36509
C         37.86116        14.51072         2.44606
C         37.95825        17.38316         1.96260
C         37.17169        19.37515         0.74675
C         38.09080        18.77010         1.63060
C         37.00290         3.12956         6.44338
C         36.84060         4.56249         6.74278
C         38.04553         5.36618         7.02643
C         36.92838         7.48514         6.35157
C         37.23592         8.80356         5.74143
C         38.06276         6.70487         6.90262
C         38.28433         9.56520         6.25298
C         37.77694        11.40280         4.74858
C         38.05041        12.76491         4.26861
C         38.54191        10.85515         5.78158
C         38.97010        13.62009         4.95056
C         38.64054        15.43619         3.34512
C         38.83531        16.80599         2.94000
C         39.20583        14.92298         4.51660
C         39.84025        17.61176         3.51157
C         39.13501        19.53680         2.22393
C         39.99462        18.95569         3.14078
O         27.46106        13.07507        -5.42678
O         25.48146         7.69268        -5.31033
O         31.55970         7.18369         3.63942
O         20.02065        12.54552        -5.26857
O         14.17858        12.71133        -3.45221
O          7.84295        15.17227         2.98981
O         36.79846        12.21335         0.99738
O          9.71590         6.45778        -2.87720
O          8.78335        13.44467         5.97509
O         28.28397         7.59292        -4.41902
O         22.20557         9.04508        -5.70128
O          8.51605         3.97558        -2.27017
O         35.68574         4.89825         7.56618
O          8.81124         8.48157        -1.67695
O         31.10187         4.72995         4.15920
O         22.65659        16.84255        -5.31272
O         11.03501        16.21376        -1.15188
O         33.39390        10.83178        -1.29224
O         30.38966         8.70850        -3.37152
O         35.66394         7.53979         7.10114
O         30.16656         8.94998         1.07915
O         28.31629        16.57811        -5.46156
O         29.09302         3.41597        -2.46003
O         10.31368        18.11158         0.71727
O         10.31022        12.82752        -1.42686
O         32.68362         5.62486         6.05593
H         31.80476         5.92714         5.72993
O         32.71066        12.33879        -3.22261
H         33.09652        11.44353        -3.08482
O          8.98213        11.12976         4.96165
H          9.06166        11.56290         5.84649
O         30.60309        12.23473        -4.58983
H         30.16559        11.49348        -5.07884
O         21.11641        16.38128        -1.06506
H         20.62228        16.77025        -0.31245
O         32.98191        11.86862         2.74919
H         32.59841        11.16912         3.32308
O         11.67386         5.94300        -4.43981
H         10.68528         5.99199        -4.41898
O         26.01426        12.09642        -2.18400
H         25.13318        11.84326        -1.83560
O         17.93567         9.64296        -1.37177
H         18.01995        10.52789        -0.95618
O         12.28261        14.83596        -2.84300
H         11.75839        15.66628        -2.72907
O         29.74536        12.70439        -1.05513
H         29.97564        12.27143        -0.20612
O         29.01142        10.11762        -5.05580
H         29.16707         9.13862        -5.11491
O          7.30826         3.55247         3.12192
H          7.16408         2.58936         3.25412
O          9.44640         3.74208         1.32076
H          8.99807         3.77596         2.20309
O         10.96251        13.24841         3.48093
H         10.64734        12.53375         4.08041
O         16.87600         5.79674        -5.67930
H         15.89979         5.77289        -5.84823
O         38.82321        14.04327         1.42259
H         38.35877        13.31903         0.93081
O         31.43105         2.34674         5.00952
H         30.75587         3.06413         4.95249
O         20.94179         1.67663        -5.61249
H         20.24355         2.16691        -6.09692
O          6.55817        11.12670         1.28502
H          6.95753        11.70647         0.60124
O         24.90831         3.88744        -0.84774
H         24.04691         3.44941        -0.67565
O         21.85755        14.32558        -6.06713
H         21.02947        13.79824        -6.18278
O          8.96865         7.31946         2.73580
H          8.64231         6.74219         3.45934
O         33.66789         2.24516         2.14320
H         33.59723         1.83936         1.25451
O         14.22853         5.91328        -5.18221
H         13.23926         5.87941        -5.25732
H          1.73576         1.57457         3.05491
H          2.16290         3.86973         3.84692
H          3.44052         0.35598         1.70218
H          2.73270         5.45882         4.77936
H          3.11089         7.75610         5.49196
H          3.59821         9.47579         6.23071
H          4.20906        11.67510         7.06981
H          4.78946        13.30081         7.88263
H          5.31835        15.57180         8.64538
H          6.44228        17.77608         8.31408
H          5.66832         0.28297         0.64449
H          8.01282        19.19271         7.02356
H          7.87479         0.22785        -0.48162
H          9.58614        19.46044         5.15181
H         10.08568         0.31209        -1.78954
H         11.26490        19.73690         3.41135
H         12.27116         0.39648        -2.66884
H         12.90181        20.05792         1.47987
H         14.59004         0.38700        -3.17486
H         14.91290        20.06781         0.29982
H         16.98150         0.32913        -3.41065
H         17.17090        20.00901        -0.50417
H         19.38300         0.23163        -3.69596
H         19.38904        20.04271        -1.43664
H         21.82769         0.20271        -3.26321
H         21.61644        20.14343        -2.42315
H         24.10576         0.19831        -2.39082
H         23.84793        20.10730        -3.58416
H         26.32347         0.23320        -1.28341
H         26.07834        20.14008        -3.95257
H         28.49064         0.42191        -0.00376
H         28.53419        20.17093        -3.78977
H         30.56352         0.64725         1.35103
H         30.87332        20.20242        -3.12102
H         32.26592         0.94797         3.02213
H         33.09958        20.25830        -2.08975
H         33.93234         1.16522         4.86831
H         35.22263        20.34073        -0.84110
H         36.12798         1.36139         5.65019
H         37.27387        20.44481         0.51105
H         37.94826         2.63835         6.71826
H         38.95152         4.83144         7.35058
H         39.00032         7.23858         7.11409
H         38.89945         9.17760         7.07549
H         39.35846        11.42483         6.24198
H         39.45789        13.28427         5.87418
H         39.83416        15.56967         5.14561
H         40.54059        17.18260         4.24068
H         39.24328        20.59586         1.95005
H         40.80079        19.55045         3.59234
