         618
 CSIRO Nanostructure Databank - Neutral Graphene Oxide Data Set
C         23.08896        69.75878        -1.84239
C         23.08146        71.17220        -2.09882
C         21.91424        71.88954        -2.25916
C         23.11003        74.01919        -2.30587
C         21.93550        73.31298        -2.39587
C         25.56992        65.56931        -0.95866
C         25.42880        66.91858        -0.86583
C         24.12228        67.59856        -1.20479
C         25.48178        69.80758        -1.30844
C         24.23083        69.08361        -1.48797
C         25.55153        71.18730        -1.62492
C         24.39520        71.85792        -2.29502
C         25.54232        74.03199        -1.92204
C         24.36642        73.34662        -2.14005
C         28.03666        61.37227        -0.24301
C         27.99662        62.75792        -0.19558
C         26.84736        63.49824        -0.67260
C         27.72909        65.53831         0.44480
C         26.73657        64.84854        -0.48561
C         27.70789        67.06518         0.29081
C         26.52950        67.75122        -0.32159
C         27.84765        69.85794        -0.68991
C         26.63131        69.16013        -0.79407
C         27.91502        71.23938        -0.99138
C         26.74343        71.91207        -1.42187
C         27.96628        74.05218        -1.48941
C         26.77742        73.35362        -1.64027
C         30.34418        57.08144         0.54334
C         30.30744        58.45880         0.58437
C         29.20222        59.22816         0.12545
C         30.34865        61.36628         0.61881
C         29.18641        60.63775         0.18834
C         30.35838        62.80309         0.55512
C         29.15695        63.49954         0.24177
C         30.29564        65.62257         0.61463
C         29.11230        64.91176         0.36925
C         30.29200        67.10253         0.65999
C         29.00374        67.82315         0.39973
C         30.38985        69.85735        -0.35013
C         29.08919        69.12832        -0.33475
C         30.35807        71.30445        -0.65172
C         29.18101        71.95690        -0.93518
C         30.39325        74.11250        -1.07916
C         29.20048        73.39790        -1.18817
C         32.76145        52.77781         0.63583
C         32.68640        54.16276         0.96458
C         31.49416        54.85998         0.96393
C         32.72286        57.00664         1.23546
C         31.36469        56.31254         1.36223
C         32.74682        58.48393         1.15463
C         31.40948        59.19136         1.34218
C         32.74125        61.33392         1.13462
C         31.52430        60.66326         0.99984
C         32.74825        62.81852         1.38811
C         31.53948        63.53194         0.83606
C         32.79790        65.67311         0.85200
C         31.54269        64.93874         0.76626
C         32.76417        67.11689         0.67952
C         31.58704        67.80874         0.50221
C         32.85461        69.98533         0.08574
C         31.55094        69.33153         0.49812
C         32.87473        71.31032        -0.36458
C         31.66632        71.95896        -0.98833
C         32.85379        74.13364        -0.81539
C         31.65082        73.46278        -0.89447
C         35.26364        48.55941         0.19165
C         35.21469        49.94226         0.45549
C         34.00788        50.67956         0.41976
C         35.23532        52.77675         0.90755
C         33.97892        52.07031         0.67306
C         35.25101        54.12886         1.24999
C         33.94739        54.79720         1.44885
C         35.22622        57.02077         1.83429
C         33.93792        56.26763         1.68502
C         35.23549        58.52902         1.71629
C         33.98862        59.24595         1.38197
C         35.27554        61.31198         0.91670
C         33.98039        60.61413         1.25680
C         35.22633        62.81542         1.04946
C         34.05545        63.51523         1.08430
C         35.27882        65.66007         0.94761
C         34.02197        64.97546         0.97366
C         35.31663        67.13280         0.91100
C         34.02965        67.89057         0.77364
C         35.29478        69.89136        -0.06420
C         34.07311        69.28446         0.25178
C         35.33219        71.29213        -0.34472
C         34.10359        72.00674        -0.47015
C         35.33056        74.10664        -0.74780
C         34.11247        73.43214        -0.70084
C         37.76007        44.35866        -0.58790
C         37.73616        45.73661        -0.25990
C         36.51390        46.45587        -0.19451
C         37.72806        48.47702         0.44945
C         36.48936        47.82255         0.13463
C         37.68073        49.87022         0.90648
C         36.44762        50.66331         0.70304
C         37.75102        52.81585         0.72710
C         36.46622        52.03411         0.83554
C         37.71526        54.19367         1.33834
C         36.49139        54.85978         1.46129
C         37.68943        57.02693         1.78608
C         36.50363        56.29907         1.69090
C         37.69725        58.46825         1.80061
C         36.53415        59.21649         1.61196
C         37.66335        61.39210         1.73424
C         36.52451        60.66258         1.49931
C         37.63741        62.90618         1.80305
C         36.56520        63.48727         0.86266
C         37.73438        65.67426         1.02140
C         36.49884        64.97926         0.99516
C         37.76231        67.06224         0.64560
C         36.57592        67.77250         0.50326
C         37.82156        69.76404        -0.47297
C         36.49678        69.00939        -0.34865
C         37.83339        71.25999        -0.55883
C         36.55882        71.99760        -0.49630
C         37.82106        74.08809        -0.74590
C         36.57313        73.40659        -0.65590
C         40.18555        40.07608        -1.15330
C         40.15919        41.49125        -1.02435
C         38.98504        42.23733        -0.95605
C         40.19952        44.37147        -0.53861
C         38.97300        43.65621        -0.72070
C         40.20517        45.71929        -0.12785
C         38.97130        46.41833         0.01062
C         40.21428        48.49397         0.61723
C         38.95601        47.79884         0.38359
C         40.24039        49.87316         0.89007
C         38.98439        50.59559         1.12226
C         40.20061        52.75545         1.13877
C         39.00180        52.06406         1.07153
C         40.16563        54.20548         1.27754
C         38.97005        54.87475         1.49278
C         40.25441        57.05124         1.81057
C         38.97372        56.27924         2.07980
C         40.26713        58.48299         1.91864
C         38.96082        59.18613         2.09866
C         40.22269        61.47760         2.17906
C         38.89082        60.69994         2.16898
C         40.19560        62.91430         1.70461
C         38.98118        63.57904         1.53896
C         40.20012        65.66805         1.10810
C         38.96932        64.96610         1.21141
C         40.20450        67.09139         0.86364
C         39.03678        67.72263         0.50301
C         40.36764        69.87969         0.06667
C         39.10325        69.07173        -0.09638
C         40.29679        71.34637        -0.08705
C         39.09818        71.99721        -0.35446
C         40.29294        74.08894        -0.73159
C         39.05980        73.42355        -0.58392
C         42.68413        35.97291        -2.27385
C         42.62837        37.26856        -1.70399
C         41.43646        37.98732        -1.55748
C         42.62924        40.05126        -0.82786
C         41.39391        39.35590        -1.14970
C         42.69348        41.43327        -0.82160
C         41.45812        42.19927        -1.07563
C         42.74081        44.33475        -0.41821
C         41.47240        43.70011        -0.82924
C         42.69707        45.72245        -0.01129
C         41.45909        46.40746         0.11716
C         42.67755        48.47902         0.75532
C         41.45120        47.78389         0.49078
C         42.67292        49.87388         1.01849
C         41.46422        50.59669         1.01979
C         42.68433        52.75506         1.15498
C         41.45931        52.04294         1.15674
C         42.70432        54.20613         1.16347
C         41.42149        54.98510         1.00806
C         42.72134        57.12184         1.62201
C         41.43605        56.38377         1.57312
C         42.72043        58.59631         1.48165
C         41.44555        59.21177         1.63276
C         43.09199        61.53076         1.85230
C         41.13442        60.63135         1.23078
C         42.71039        62.80503         1.23302
C         41.44128        63.58145         1.44893
C         42.64110        65.69433         0.70062
C         41.42137        64.94383         1.10383
C         42.68326        67.11807         0.99053
C         41.43492        67.87717         1.26389
C         42.73129        70.02723         0.87060
C         41.54865        69.30588         0.74638
C         42.74952        71.43920         0.39359
C         41.54395        72.05415        -0.03948
C         42.73034        74.02424        -0.92344
C         41.52212        73.41664        -0.53675
C         45.14337        33.22389        -2.97937
C         43.92395        33.92100        -2.86998
C         45.18672        35.95036        -2.25432
C         43.88830        35.26619        -2.46436
C         45.18780        37.28451        -1.58316
C         43.87284        37.84235        -1.13166
C         45.15894        39.99012        -0.47398
C         43.85433        39.25674        -0.61070
C         45.15884        41.46544        -0.60002
C         43.94345        42.15743        -0.65020
C         45.21143        44.29268        -0.35432
C         43.91946        43.59470        -0.48885
C         45.18246        45.73521         0.03896
C         43.90306        46.42088         0.28573
C         45.18542        48.49392         0.81463
C         43.91888        47.76690         0.67557
C         45.19764        49.87456         1.04383
C         43.93074        50.56771         1.47922
C         45.14217        52.71061         1.02668
C         43.92102        52.04342         1.17962
C         45.11750        54.15927         0.73981
C         43.88617        54.89717         1.05823
C         45.20066        57.11124         0.91704
C         43.98422        56.35606         1.30835
C         45.18235        58.53804         0.93215
C         43.97836        59.27202         1.23732
C         45.21513        61.38176         0.64348
C         44.05633        60.70285         1.16874
C         45.23718        62.81132         0.55765
C         43.95650        63.49524         0.53065
C         45.22362        65.70043         0.66530
C         43.93882        64.98454         0.42658
C         45.21370        67.07016         0.96437
C         43.94513        67.76644         1.41414
C         45.15152        69.83456         1.61700
C         43.94376        69.27799         1.25713
C         45.17603        71.96705         0.86942
C         43.94857        72.22595         0.22870
C         45.17689        73.93578        -1.10141
C         43.95686        73.39818        -0.63174
C         46.36589        33.80781        -2.66991
C         47.64561        35.79052        -1.92967
C         46.44778        35.16767        -2.25363
C         47.71357        37.15802        -1.47494
C         46.44857        37.71003        -0.83087
C         47.64947        40.03597        -1.02677
C         46.45253        39.23295        -0.62133
C         47.67023        41.44040        -0.56546
C         46.43630        42.13430        -0.43875
C         47.69010        44.16553         0.07828
C         46.46557        43.52365        -0.19964
C         47.69209        45.57632         0.55436
C         46.40550        46.33753         0.62896
C         47.65677        48.47920         0.66933
C         46.42836        47.80608         0.68182
C         47.66811        49.89931         0.83737
C         46.43010        50.59912         1.03899
C         47.62848        52.80358         1.12433
C         46.38378        52.02617         1.07678
C         47.65814        54.23140         0.79885
C         46.40401        54.94137         0.58559
C         47.64399        57.10923         0.59603
C         46.39829        56.41437         0.71298
C         47.62662        58.51298         0.45339
C         46.40863        59.23754         0.59946
C         47.63265        61.39739        -0.05223
C         46.40328        60.65349         0.43779
C         47.68215        62.86466         0.32539
C         46.46433        63.54913         0.47575
C         47.69611        65.68856         0.69285
C         46.45417        64.98911         0.60101
C         47.69387        67.10437         0.91601
C         46.44122        67.76312         1.11437
C         47.64812        69.82630         1.55102
C         46.42280        69.13958         1.51066
C         47.64657        71.95389         0.89418
C         46.40832        72.46326         0.40675
C         47.65998        73.78290        -1.22902
C         46.41693        73.39521        -0.69426
C         48.89477        37.85474        -1.47671
C         50.18102        40.06132        -1.02525
C         48.94911        39.32552        -1.30512
C         50.17626        41.40749        -0.64776
C         48.90340        42.10651        -0.42177
C         50.17538        44.14175         0.43073
C         48.90226        43.45989        -0.01153
C         50.15974        45.62389         0.09372
C         48.91423        46.37568         0.37292
C         50.14264        48.50587         0.01713
C         48.89170        47.74657         0.41605
C         50.11206        49.95690         0.42041
C         48.91018        50.59580         0.76962
C         50.09086        52.80342         0.44173
C         48.94318        52.03574         1.04796
C         50.09757        54.24564         0.84589
C         48.88116        54.95780         0.78586
C         50.13966        57.10378         0.60182
C         48.88783        56.39032         0.64140
C         50.16289        58.49935         0.40023
C         48.89263        59.20017        -0.02639
C         50.18551        61.40914        -0.09219
C         48.91059        60.68261         0.39740
C         50.17138        62.86797         0.32710
C         48.93362        63.55918         0.39470
C         50.16633        65.70923         0.69493
C         48.93317        64.98748         0.59892
C         50.16781        67.13667         0.83933
C         48.91693        67.83572         0.96550
C         50.08359        70.05941         0.96174
C         48.88807        69.25963         1.15279
C         50.06345        71.41062         0.58828
C         48.86412        72.18637         0.26768
C         50.09782        73.70818        -1.22926
C         48.87632        73.23263        -0.74873
C         51.39337        42.13006        -0.49177
C         52.64417        44.18654         0.05067
C         51.45545        43.48013        -0.04947
C         52.67457        45.58570         0.62832
C         51.44915        46.35884         0.17538
C         52.69101        48.54461         0.13614
C         51.41640        47.82359         0.55666
C         52.57403        49.94158         0.03122
C         51.34306        50.65109         0.33513
C         52.60700        52.75921         0.50218
C         51.39869        52.06501         0.51572
C         52.66383        54.18256         0.86549
C         51.34983        54.96444         1.03069
C         52.61698        57.07578         0.76772
C         51.37540        56.40845         0.80875
C         52.62458        58.50439         0.64715
C         51.39463        59.22120         0.46197
C         52.63277        61.35924         0.50988
C         51.42209        60.64650         0.34342
C         52.60710        62.80204         0.60252
C         51.40010        63.54455         0.56203
C         52.60376        65.72529         0.92399
C         51.40442        64.99655         0.73014
C         52.60734        67.14509         0.98886
C         51.39244        67.85245         0.96197
C         52.66130        70.03587         0.82688
C         51.39114        69.34503         1.31978
C         52.66073        71.55665         0.81271
C         51.31612        72.17975         0.45044
C         52.57509        73.98353        -0.94440
C         51.30937        73.42802        -0.49490
C         53.91878        46.40181         0.39095
C         55.24633        48.43237         0.38643
C         53.94597        47.78802         0.23126
C         55.55112        49.72080        -0.06868
C         53.67987        50.77386        -0.32271
C         55.07756        52.81223         0.02282
C         53.81128        52.10722         0.07662
C         55.08121        54.20905         0.20751
C         53.87812        54.94410         0.55766
C         55.16617        57.04458         0.90496
C         53.85690        56.32741         0.70994
C         55.11418        58.52037         0.61683
C         53.86759        59.22372         0.64502
C         55.15781        61.33282         0.95178
C         53.85542        60.63826         0.63851
C         55.14262        62.80343         0.67709
C         53.86294        63.48562         0.94971
C         55.17419        65.67144         1.06830
C         53.85549        64.96911         1.16787
C         55.20045        67.18361         1.08586
C         53.87621        67.93096         1.34013
C         55.09373        69.96164         0.33876
C         53.84605        69.34253         0.77233
C         55.10341        71.43904         0.18196
C         53.83672        72.15621         0.07796
C         55.01553        74.10204        -0.96381
C         53.79850        73.41245        -0.57435
C         56.49835        50.67282         0.33054
C         57.52414        52.82436        -0.17683
C         56.37114        52.08875        -0.00238
C         57.46343        54.25832        -0.62575
C         56.29288        54.97233         0.01542
C         57.53523        57.08184        -0.00408
C         56.32945        56.32805         0.25346
C         57.52852        58.46214         0.03273
C         56.32314        59.20931         0.34205
C         57.56283        61.35274         0.16609
C         56.35369        60.61980         0.38514
C         57.58659        62.77638         0.30431
C         56.34380        63.51453         0.53637
C         57.60257        65.69817         0.57335
C         56.34792        64.93391         0.58793
C         57.55687        67.14734         0.25183
C         56.35941        67.84782         0.43695
C         57.38724        69.77485        -0.76957
C         56.25897        69.24382         0.10785
C         57.42400        71.28940        -0.92795
C         56.32201        72.11514        -0.36208
C         57.49496        74.19878        -1.06433
C         56.24683        73.51489        -0.85638
C         58.75743        54.99274        -0.44539
C         60.01972        57.08857        -0.20555
C         58.78224        56.34812        -0.24763
C         60.03324        58.47209        -0.24746
C         58.72965        59.20081        -0.49535
C         59.98265        61.34548        -0.22766
C         58.76672        60.65561        -0.11965
C         59.98876        62.75767        -0.17147
C         58.80533        63.46139         0.11280
C         60.06206        65.65668        -0.16874
C         58.87700        64.92825         0.30785
C         60.02202        67.07768        -0.26794
C         58.78282        67.80330        -0.16860
C         59.95613        69.87294        -0.83849
C         58.75974        69.17973        -0.50031
C         59.97384        71.30648        -1.11374
C         58.69769        72.03916        -1.16896
C         59.96380        74.18838        -1.11494
C         58.69812        73.52037        -1.05817
C         61.24073        59.21445        -0.23088
C         62.46717        61.34118        -0.23919
C         61.25433        60.61728        -0.28744
C         62.50601        62.75025        -0.31458
C         61.22205        63.46565        -0.66825
C         62.47907        65.62377        -0.47206
C         61.24873        64.94362        -0.39820
C         62.48280        67.04565        -0.59037
C         61.22610        67.76718        -0.61228
C         62.42819        69.84215        -1.27183
C         61.18789        69.15570        -0.87022
C         62.43947        71.34335        -1.33819
C         61.14260        72.04375        -1.24429
C         62.44519        74.26719        -1.37343
C         61.14542        73.49128        -1.23219
C         63.69280        63.47276        -0.23013
C         64.92705        65.61066        -0.26833
C         63.72666        64.89973        -0.35492
C         64.95399        67.03044        -0.39698
C         63.71813        67.71356        -0.64391
C         64.96217        69.88886        -0.71134
C         63.75969        69.11978        -1.04989
C         64.84181        71.32750        -0.44383
C         63.69817        72.09819        -1.00638
C         64.72979        74.23777        -0.32431
C         63.65126        73.56389        -0.77284
C         66.14433        67.77899        -0.28096
C         67.32400        69.96179        -0.04319
C         66.13236        69.20815        -0.30360
C         67.32877        71.36538        -0.00060
C         66.03413        72.08421         0.08217
C         67.25321        74.22730        -0.39935
C         66.01344        73.61042         0.19163
C         68.49698        72.12705        -0.18807
C         68.42308        73.52196        -0.45972
O         58.52333        65.34006         1.68058
O         50.90626        45.98717        -1.11478
O         41.55063        43.14165        -2.19469
O         45.18663        71.17528         2.01773
O         56.16751        72.02964         1.08562
O         40.08100        69.12757        -1.18746
O         32.87360        57.65505        -0.07175
O         46.95972        45.70996         1.83569
O         45.30652        37.22846        -3.02326
O         47.64583        71.13975         2.03892
O         55.55939        66.43141         2.29045
O         63.14731        69.26922        -2.39871
O         31.09025        59.10489         2.71311
O         26.67772        67.66461         1.15715
O         51.17040        73.50753         0.99470
O         42.95001        62.76973        -0.21097
O         24.73854        71.60990        -3.82678
O         48.47275        52.47777         2.32759
O         45.96874        39.58996         0.70487
O         38.78129        59.90602         3.39958
O         53.79581        64.08003         2.34044
O         43.75238        38.11407         0.30245
O         35.15323        57.85546         3.03615
O         37.91073        70.38976        -1.78805
O         38.21614        50.05574         2.27731
O         52.13318        54.48664         2.19576
O         65.05201        71.54321         1.02351
O         43.61427        56.64460         2.71962
O         45.37531        45.37144        -1.37331
O         57.78486        71.64129        -2.29416
O         45.63722        54.47502        -0.61157
O         54.67976        50.20011        -1.08683
O         30.02498        69.00401        -1.49492
O         63.35004        71.80493        -2.40106
O         33.74526        55.36440         2.80530
O         34.66427        67.77894         2.09596
O         29.50789        67.76248         1.77166
O         43.14953        65.43424        -0.71673
O         41.13491        60.90695         0.03352
O         48.08474        39.92431        -2.40680
O         55.30644        61.23097         2.42829
H         54.77849        61.95975         2.82529
O         62.70596        74.46289        -2.77448
H         62.91155        73.57347        -3.14911
O         38.98016        56.08652         3.53157
H         38.08536        55.79298         3.80613
O         61.12055        63.37935        -2.13875
H         61.15508        62.42802        -2.37806
O         37.04065        63.20278        -0.49758
H         36.64583        63.86243        -1.10647
O         41.28046        68.00096         2.73297
H         42.18899        67.94860         3.12614
O         50.23461        61.41801        -1.54419
H         49.97918        60.50983        -1.84737
O         30.91457        56.40798         2.73183
H         30.92150        57.39253         2.96349
O         41.36447        55.21717        -0.46450
H         40.58963        55.79122        -0.64778
O         43.97623        67.55444         2.92164
H         44.73423        68.07706         3.26809
O         35.40219        61.06093        -0.52890
H         36.14225        61.63924        -0.84625
O         50.23766        48.49712        -1.43060
H         49.41119        48.87394        -1.79679
O         46.39296        37.08029         0.46618
H         45.80075        37.63928         1.02618
O         48.89557        60.73108         1.83768
H         49.69601        60.27610         2.17529
O         37.23845        63.25255         3.15017
H         37.83627        62.80012         3.78132
O         57.02138        69.23179        -2.08148
H         57.43171        69.83231        -2.74998
O         23.46306        66.93487        -2.29077
H         23.97891        67.09365        -3.10749
O         32.61067        62.92458         2.85097
H         31.87975        62.33150         3.13137
O         58.56191        59.21016        -1.96467
H         58.53894        58.27345        -2.25799
O         31.31079        69.77277         1.86122
H         30.63794        69.16101         2.25223
O         36.21545        68.46455        -1.68576
H         36.64611        69.08309        -2.32527
O         27.27467        65.23737         1.79101
H         26.72864        66.00420         2.08431
O         52.57416        45.45395         2.09802
H         51.76718        44.90188         2.28078
O         53.80829        68.14349         2.78240
H         54.30922        67.39926         3.20109
O         23.72407        72.23231        -4.61603
H         23.01772        71.54377        -4.67962
O         40.60758        61.53927         3.57024
H         40.15894        60.77091         4.01747
O         47.55281        61.36191        -1.51556
H         46.78154        61.90699        -1.78205
O         31.82617        71.67486        -2.43258
H         31.59620        70.73078        -2.57614
O         49.76240        52.80999        -1.00469
H         50.49278        53.25551        -1.48422
O         50.18831        44.08232         1.89974
H         50.04384        43.15018         2.16833
O         37.86562        53.06850        -0.74025
H         38.71547        53.53845        -0.88734
O         66.06231        73.91462         1.61904
H         65.50549        73.23638         2.06443
O         52.89380        71.91943         2.21163
H         52.52868        72.82543         2.33516
O         51.35550        47.89291         2.00066
H         51.94429        47.18113         2.36131
O         43.01793        61.28304         3.16504
H         42.26827        61.75755         3.61144
O         55.42373        56.96729         2.36148
H         55.27362        56.03761         2.63754
O         43.91551        50.46665         2.95472
H         43.97246        49.51529         3.18706
O         51.40835        69.40248         2.77274
H         52.28786        69.05274         3.06963
O         48.87924        59.09613        -1.48790
H         48.10784        59.62498        -1.81097
O         57.19774        54.23526        -2.08111
H         56.41790        53.65659        -2.22197
H         23.09759        75.11894        -2.31470
H         25.53961        75.13294        -1.92584
H         27.97264        75.14238        -1.63998
H         30.37075        75.20977        -1.16702
H         32.87143        75.23368        -0.85997
H         35.34478        75.19810        -0.88488
H         37.82136        75.17335        -0.92549
H         40.30637        75.14309        -1.04590
H         42.71679        74.98581        -1.45633
H         45.15347        74.77911        -1.80593
H         47.70088        74.56214        -2.00312
H         50.14095        74.36233        -2.11118
H         52.56028        74.85140        -1.61831
H         54.92417        75.13367        -1.33380
H         57.48573        75.29421        -1.16681
H         59.98055        75.28777        -1.07381
H         62.32369        75.28067        -0.91542
H         64.67345        75.33537        -0.24219
H         67.23683        75.29790        -0.64867
H         22.13520        69.21112        -1.88999
H         20.94441        71.37213        -2.21041
H         20.98102        73.84616        -2.50660
H         24.75035        64.98136        -1.40216
H         23.44723        67.47179        -0.31096
H         27.16065        60.81566        -0.60839
H         26.06010        62.94994        -1.21342
H         29.56003        56.52797        -0.00110
H         28.28572        58.70566        -0.19410
H         31.83704        52.23874         0.37877
H         30.57371        54.32278         0.68400
H         34.32427        48.02601        -0.01823
H         33.06448        50.15722         0.20088
H         36.80900        43.83051        -0.75107
H         35.57071        45.93205        -0.40925
H         39.23856        39.53611        -1.30293
H         38.01748        41.71487        -1.00093
H         41.73839        35.48485        -2.55579
H         40.49651        37.52343        -1.89357
H         45.11997        32.17015        -3.29154
H         42.98041        33.39420        -3.07296
H         47.28802        33.21193        -2.73007
H         48.58981        35.24396        -2.08079
H         49.80638        37.35608        -1.84429
H         51.13969        39.52515        -1.09200
H         52.33493        41.62290        -0.75272
H         53.58975        43.70080        -0.23662
H         54.88149        45.88054         0.51306
H         55.99198        47.89512         0.99201
H         57.39452        50.35937         0.88682
H         58.50075        52.31755        -0.14943
H         59.69819        54.44255        -0.60005
H         60.96781        56.53058        -0.16643
H         62.19637        58.67224        -0.16154
H         63.41154        60.78542        -0.13266
H         64.63856        62.93781        -0.05305
H         65.87119        65.06871        -0.11162
H         67.08862        67.25798        -0.06673
H         68.28208        69.42321         0.01007
H         69.46520        71.61358        -0.27198
H         69.34346        74.03285        -0.77927
