         349
 CSIRO Nanostructure Databank - Neutral Graphene Oxide Data Set
C          1.54125         3.41524         0.97485
C          0.65804         3.98010         1.87751
C          1.88967         6.09893         1.87739
C          0.82907         5.30020         2.33299
C          2.12541         7.44119         2.38957
C          1.32589         8.01893         3.35191
C          2.67887        10.04820         3.39416
C          1.64843         9.28382         3.91488
C          2.53198        12.32342         3.13962
C          1.24995        12.83018         3.28887
C          1.78786        14.34754         1.50720
C          0.83520        13.78923         2.34967
C          1.38876        16.44794         0.53930
C          0.16138        17.10585         0.65210
C          1.30069        19.20215         0.33042
C          0.12606        18.49682         0.58300
C          1.14536        20.66447         0.00320
C          0.27534        21.47024         0.93144
C          1.23135        23.50493        -0.03376
C          0.27276        22.82670         0.79611
C          0.97648        24.91802        -0.53098
C          0.06675        25.77503         0.29608
C          1.27962        27.80851        -0.37513
C          0.16522        27.12340         0.24755
C          1.33834        29.24045        -0.23226
C          3.56895         3.61594        -0.42160
C          2.62490         4.18328         0.46000
C          3.79285         6.33034         0.29398
C          2.78158         5.54261         0.89883
C          3.88392         7.80634         0.61754
C          3.45851         8.10131         2.05346
C          4.45471        10.43834         1.68084
C          3.51573         9.60667         2.32061
C          4.54300        11.87377         1.80098
C          3.49390        12.80845         2.21146
C          4.11757        15.00180         0.88547
C          3.18839        14.07889         1.55302
C          3.90991        16.36428         0.34876
C          2.63301        17.10213         0.40728
C          3.69891        19.26912        -0.23635
C          2.55507        18.52848         0.20652
C          3.60376        20.64722        -0.53361
C          2.43630        21.37503        -0.26033
C          3.49199        23.47598        -1.07303
C          2.37645        22.78808        -0.45236
C          3.23633        24.80364        -1.49040
C          2.24106        25.64050        -0.95610
C          3.59428        27.81998        -1.31238
C          2.34263        27.06998        -0.93734
C          3.63304        29.31686        -1.10901
C          2.44131        29.96946        -0.55265
C          5.76337         3.66733        -1.48708
C          4.64680         4.36656        -0.95243
C          5.52026         6.69962        -1.38127
C          4.62631         5.79723        -0.69349
C          5.94916         7.89785        -0.85693
C          5.26981         8.38790         0.35657
C          6.49776        10.60827         0.01973
C          5.51386         9.80639         0.81765
C          6.59939        12.02420         0.32258
C          5.71406        12.48632         1.30002
C          6.48537        15.11087         0.07366
C          5.47416        14.62089         0.91503
C          6.32202        16.46757        -0.33804
C          5.04228        17.08726        -0.10264
C          6.12957        19.20403        -1.01028
C          5.04620        18.60307        -0.14331
C          5.98061        20.60281        -1.46787
C          4.71703        21.35626        -1.21800
C          6.03409        23.50038        -1.35075
C          4.77288        22.84124        -1.25894
C          6.14332        24.97361        -0.98600
C          5.08172        25.87031        -1.53767
C          6.05223        27.79006        -0.38692
C          4.91495        27.14140        -1.13468
C          6.10213        29.28844        -0.65602
C          4.94942        29.97768        -0.91838
C          8.26031         3.53400        -1.45241
C          7.06305         4.23784        -1.70461
C          8.37553         6.35167        -1.84606
C          7.19993         5.60499        -2.07122
C          8.34841         7.83411        -1.90734
C          7.11812         8.62816        -1.38233
C          8.38167        10.83576        -1.63776
C          7.32984        10.01540        -0.90498
C          8.61991        12.18995        -1.00734
C          7.60641        12.86595        -0.29258
C          8.72535        15.01063        -0.87801
C          7.63374        14.32204        -0.28112
C          8.70361        16.45669        -1.08706
C          7.45645        17.15142        -0.83790
C          8.48649        19.23639        -1.72226
C          7.34860        18.54983        -1.15373
C          8.32222        20.57119        -2.00508
C          7.21217        21.38914        -1.65600
C          8.54515        23.43772        -0.79382
C          7.27652        22.78280        -1.44587
C          8.63805        24.94431        -0.84968
C          7.45122        25.72317        -1.32459
C          8.55281        27.78925        -0.32543
C          7.37878        27.10330        -0.68644
C          8.53868        29.25885        -0.24130
C          7.35816        29.95489        -0.46898
C         10.69844         3.50613        -1.09495
C          9.50124         4.21864        -1.37713
C         10.79270         6.38180        -1.08008
C          9.54108         5.65028        -1.49690
C         10.90830         7.81113        -1.57063
C          9.67976         8.53978        -1.93319
C         10.99505        10.69707        -1.55693
C          9.69862        10.05605        -1.85728
C         11.04173        12.11080        -1.45341
C          9.83501        12.85763        -1.26609
C         11.12375        14.94034        -1.47604
C          9.89257        14.27816        -1.20984
C         11.12154        16.38668        -1.88799
C          9.82109        17.10700        -1.60765
C         10.99678        19.24962        -1.09721
C          9.84090        18.57842        -1.95981
C         11.19803        20.75368        -1.24794
C         10.21213        21.63212        -1.67187
C         11.09595        23.49387        -0.47437
C          9.98054        22.90141        -1.06593
C         10.99445        24.82668         0.16628
C          9.68879        25.60871        -0.09226
C         10.93960        27.80961         0.37793
C          9.72752        27.07923        -0.01432
C         10.97714        29.27498         0.13245
C          9.77756        29.94748        -0.08082
C         13.15227         3.38928        -0.83423
C         11.96560         4.15185        -1.07034
C         13.33306         6.21409        -1.40473
C         12.03099         5.55227        -1.26858
C         13.39088         7.72462        -1.42039
C         12.10855         8.48614        -1.48971
C         13.43991        10.60521        -1.34868
C         12.17519         9.93403        -1.52524
C         13.47984        12.03265        -1.36500
C         12.29222        12.78731        -1.41533
C         13.58107        14.95100        -1.35466
C         12.32160        14.23122        -1.46994
C         13.55478        16.37621        -1.18562
C         12.34306        17.12515        -1.34822
C         13.54588        19.20124        -0.82491
C         12.32266        18.50080        -1.14377
C         13.57702        20.63808        -0.71550
C         12.39261        21.38181        -0.76873
C         13.57778        23.46716        -0.21576
C         12.37799        22.81711        -0.53606
C         13.57910        24.87497         0.23807
C         12.27557        25.56851         0.45835
C         13.46295        27.80359         0.06199
C         12.24061        27.07195         0.53497
C         13.44994        29.28092         0.21391
C         12.21820        29.95320         0.22355
C         15.51735         3.30286        -0.16575
C         14.40405         4.00397        -0.62568
C         15.72144         6.22917        -0.44767
C         14.55095         5.44773        -0.97680
C         15.70584         7.70930        -0.40235
C         14.60574         8.42884        -0.92164
C         15.77331        10.57891        -0.49097
C         14.60340         9.84284        -1.01156
C         15.98900        11.97128        -0.98438
C         14.77047        12.75973        -1.38723
C         15.97013        14.92482        -0.79503
C         14.79118        14.24105        -1.23251
C         15.91405        16.28464        -0.47714
C         14.73292        17.04355        -0.73819
C         15.97459        19.14232        -0.21697
C         14.73057        18.46544        -0.58372
C         16.05774        20.59577        -0.28658
C         14.88900        21.37853        -0.81961
C         16.01160        23.48376        -0.00668
C         14.83350        22.79064        -0.26464
C         16.02459        24.92908         0.09240
C         14.84546        25.63664         0.08685
C         16.07347        27.89602        -0.38652
C         14.76267        27.09631        -0.19284
C         15.93913        29.37272         0.01504
C         14.67418        29.96328         0.24524
C         17.95132         3.33180         0.67877
C         16.65420         4.01472         0.43417
C         18.00498         6.17952         0.78937
C         16.67645         5.50493         0.45146
C         18.02793         7.66034         0.50536
C         16.91143         8.35050         0.07752
C         18.23295        10.53375         0.37650
C         16.92096         9.83208         0.11977
C         18.33273        12.00299         0.13735
C         17.24423        12.70452        -0.60514
C         18.40363        14.86738         0.08457
C         17.25467        14.20349        -0.58778
C         18.33762        16.22223         0.35490
C         16.99718        16.92836         0.35960
C         18.42560        19.08515         0.29551
C         17.08713        18.41335         0.13705
C         18.30101        20.53469         0.66824
C         17.19540        21.26568         0.11560
C         18.43967        23.41401         0.71402
C         17.33469        22.75898        -0.13094
C         18.47428        24.92722         0.80734
C         17.35713        25.66373        -0.00712
C         18.51471        27.83480         0.30631
C         17.19090        27.13928         0.43206
C         18.40051        29.89504        -0.13824
C         17.03855        30.24275         0.06487
C         19.11437         3.98022         0.49576
C         20.45197         6.13644         0.32379
C         19.14122         5.43832         0.05489
C         20.52266         7.42820         0.66980
C         19.32805         8.33334         0.93499
C         20.71170        10.50763         0.63893
C         19.50063         9.70362         0.23587
C         20.76755        11.86702         0.56483
C         19.64103        12.70014         0.21999
C         20.75464        14.83494         0.82077
C         19.62029        14.10674         0.32339
C         20.66864        16.16043         1.14748
C         19.47207        16.91256         0.91115
C         20.31799        19.00420         1.95798
C         19.41016        18.30641         1.12899
C         20.22833        20.36878         2.15640
C         19.21420        21.15346         1.51837
C         19.70853        23.21098         2.82080
C         19.11495        22.58929         1.75121
C         19.73606        24.63019         2.94512
C         19.21397        25.47222         1.99196
C         20.69486        28.60567         1.22333
C         19.55865        27.73381         1.19133
C         20.67207        29.92745         0.79569
C         19.50425        30.59971         0.36035
O          5.93444        13.73165         1.88769
O          4.96358        20.74824        -2.54859
O         19.47640        26.80235         2.24166
O         13.56114         6.95255        -2.66432
O         12.98230        25.00220         1.61304
O         10.02406        24.94240         1.22507
O          9.78369         9.36493        -3.14416
O         17.75785        13.44298        -1.75013
O         13.80720        27.34792        -1.29383
O         15.71878         5.68879        -1.81723
O          9.34976        21.23083        -2.69090
O          6.15209         8.64842         1.47991
O         15.86473        10.40499         0.96727
O         16.10987         4.84619         1.62449
O          4.14058        25.32781        -2.41660
O         19.38342        24.19729        -0.09491
O          7.38915         8.43313        -2.80771
O          1.30005        15.06722         0.41234
O         18.68876        28.67688        -0.80629
O         15.67705        12.15406        -2.38793
O         11.56114        27.53427         1.72329
O          6.06708         6.23995        -2.59932
O         18.07046        11.45623         1.49032
O          2.94172        11.28302         4.00554
O          3.45726        28.71858        -2.45892
O         19.01408        19.06373        -1.07247
H         18.37760        19.51984        -1.66468
O         15.12450        21.55536        -2.26302
H         15.97387        22.04995        -2.34848
O          0.23899        24.70038        -1.80923
H          0.10129        25.58258        -2.21744
O         18.25817         6.02831         2.20933
H         17.48818         5.51368         2.56619
O          4.41478         7.43714         2.92258
H          4.20371         7.68275         3.84713
O         16.39107        27.91016        -1.77686
H         16.82959        27.05822        -2.01518
O         17.72168        22.88350        -1.54751
H         18.68059        22.67261        -1.60330
O          0.43847        20.67243        -1.30177
H          0.34323        21.61270        -1.57170
O         19.26699         8.57713         2.35333
H         18.97296         7.72959         2.76695
O         10.50865        19.11171         0.27402
H         11.18931        19.47512         0.87938
O         17.75625        25.66357        -1.38632
H         17.87261        24.71579        -1.65961
O         16.51349        16.78987         1.75240
H         16.47473        15.83251         1.96251
O          2.96101         8.51365        -0.25286
H          3.09118         8.19606        -1.17095
O         18.84833         5.49961        -1.35696
H         19.62947         5.18582        -1.85637
O          5.80043        27.66877         1.04725
H          6.62540        27.90919         1.51877
O         16.78855        27.09690         1.81457
H         16.77801        28.00844         2.17396
O         10.19703        18.73657        -3.35287
H         10.05041        19.68434        -3.58645
O          7.84869        11.14710        -2.95149
H          7.95610        10.32816        -3.49382
O          7.47093        25.88615        -2.78182
H          8.29818        26.34947        -3.02830
O         19.62805         9.39837        -1.18128
H         19.89108        10.21387        -1.65757
O          8.28524        23.03419         0.60473
H          8.91646        23.55612         1.16901
O          6.02223        24.98893         0.46235
H          6.71221        24.37509         0.81333
O          5.49626        18.98721         1.23207
H          6.35281        18.53426         1.39404
O         10.65546         6.54129         0.40021
H         10.55755         5.64012         0.77867
O         11.31233        16.32178        -3.33826
H         11.05305        17.19965        -3.71085
H          1.41341         2.37486         0.64389
H         -0.18219         3.38664         2.26474
H          0.11693         5.69295         3.07122
H          0.41854         7.51266         3.70983
H          1.04549         9.68250         4.74048
H          0.56021        12.41086         4.03144
H         -0.21653        14.08854         2.26245
H         -0.75896        16.51638         0.74872
H         -0.83259        19.02856         0.64510
H         -0.45512        20.97171         1.58431
H         -0.46058        23.42232         1.35904
H         -0.77941        25.31067         0.82146
H         -0.57484        27.74467         0.77530
H          0.46726        29.74043         0.21751
H          3.50387         2.54125        -0.64938
H          2.48453        31.04420        -0.32121
H          5.71309         2.56762        -1.42784
H          4.98268        31.07748        -0.99239
H          8.22733         2.45951        -1.22250
H          7.38297        31.05489        -0.51079
H         10.65109         2.41579        -0.96392
H          9.78482        31.04369        -0.17650
H         13.05416         2.30761        -0.66038
H         12.21801        31.05374         0.21065
H         15.45501         2.21244        -0.02886
H         14.64670        31.05396         0.39750
H         17.93859         2.26780         0.96397
H         16.84433        31.27264         0.40572
H         20.07011         3.45303         0.64701
H         21.38003         5.55596         0.18600
H         21.51473         7.87561         0.84167
H         21.62213         9.95988         0.92360
H         21.72423        12.35447         0.80419
H         21.70313        14.30671         0.98676
H         21.55501        16.67491         1.54397
H         21.07667        18.43825         2.51798
H         20.93962        20.85875         2.83483
H         20.21091        22.61742         3.59645
H         20.27144        25.07626         3.79305
H         21.57612        28.25596         1.78009
H         21.55711        30.54202         1.02154
H         19.41099        31.67573         0.56943
