         210
 CSIRO Nanostructure Databank - Neutral Graphene Oxide Data Set
C         30.44130        31.70484         0.51795
C         30.49461        32.87603         0.97529
C         30.45244        35.94196         0.38189
C         30.57369        37.08952        -0.07783
C         30.53656        40.18139        -0.66632
C         30.45650        41.42341        -0.82465
C         32.88832        29.01383         0.60362
C         31.73590        29.46189         0.29955
C         33.02492        31.65706         1.49640
C         31.12771        30.54671         0.95008
C         32.93829        33.05777         1.31338
C         31.61645        33.75652         1.30474
C         32.88730        35.93726         0.64738
C         31.60154        35.23871         0.97164
C         32.89210        37.29607         0.19512
C         31.67758        37.98413        -0.15030
C         32.86814        40.15666        -0.35226
C         31.66022        39.36804        -0.39802
C         32.84299        41.58302        -0.54226
C         31.57790        42.28345        -0.77282
C         32.82471        44.27270        -0.80563
C         31.71942        43.68584        -0.89310
C         35.62645        27.47919         0.22339
C         35.41387        28.81837         0.65706
C         34.19178        29.50687         0.81974
C         35.40359        31.67545         0.97846
C         34.20233        30.92836         1.15141
C         35.37659        33.10619         0.99075
C         34.12833        33.80255         1.04971
C         35.34444        35.95517         0.68918
C         34.10330        35.23246         0.80777
C         35.32425        37.35802         0.40452
C         34.12663        38.03262         0.12813
C         35.31681        40.20391        -0.20533
C         34.11431        39.47208        -0.14820
C         35.33318        41.62121        -0.33218
C         34.08218        42.31347        -0.48098
C         35.33672        44.45177        -0.51630
C         34.12070        43.74518        -0.60732
C         35.50771        45.85939        -0.56001
C         37.88092        26.76452        -0.16314
C         36.46077        26.68471        -0.27067
C         37.93137        28.91922         0.61855
C         36.65376        29.54695         0.77001
C         37.85770        31.70443         0.63274
C         36.63935        30.97581         0.78179
C         37.86654        33.13143         0.75938
C         36.60734        33.84437         0.89504
C         37.85985        36.02975         1.00601
C         36.57769        35.24824         0.83830
C         37.83222        37.30080         0.15602
C         36.60631        38.16465         0.49355
C         37.86367        40.23482        -0.07773
C         36.60629        39.43921        -0.35911
C         37.83731        41.63471        -0.11811
C         36.57798        42.34087        -0.27976
C         37.82811        44.49689        -0.18331
C         36.59172        43.76468        -0.33228
C         37.86510        45.92958        -0.19876
C         36.57722        46.48905        -0.42224
C         40.24007        24.44843        -1.64667
C         39.26962        25.26730        -1.60452
C         40.13187        27.51235        -1.13600
C         38.97668        26.49230        -0.97865
C         40.17282        28.91550        -0.53696
C         39.04911        29.59975         0.17063
C         40.29440        31.70990         0.15055
C         39.05585        31.01855         0.27311
C         40.31905        33.10706         0.39592
C         39.09543        33.82110         0.65404
C         40.30639        35.96622         0.60610
C         39.12893        35.26065         0.71747
C         40.31671        37.42236         0.48622
C         39.10779        38.10997         0.28673
C         40.32489        40.24968         0.21018
C         39.09219        39.52491         0.13363
C         40.30777        41.67597         0.12755
C         39.07238        42.37266         0.00861
C         40.29613        44.52268         0.16834
C         39.07024        43.80085        -0.00711
C         40.29603        45.96062         0.23619
C         39.06899        46.63312         0.01163
C         40.22818        48.80078         0.14028
C         39.24467        48.05353         0.04845
C         42.81402        24.51739        -1.45596
C         41.55209        24.78191        -2.02606
C         42.67393        27.51719        -1.04401
C         41.47602        27.00139        -1.56559
C         42.69647        28.88264        -0.53468
C         41.49205        29.59280        -0.38292
C         42.75922        31.67013         0.01677
C         41.51357        30.98257        -0.06610
C         42.76885        33.08818         0.21213
C         41.56239        33.78462         0.38583
C         42.75749        35.95771         0.04635
C         41.61966        35.23913         0.76197
C         42.81172        37.38240         0.56969
C         41.54457        38.14281         0.49468
C         42.82064        40.26845         0.25466
C         41.56661        39.54733         0.35535
C         42.81010        41.69335         0.12142
C         41.53991        42.40840         0.18291
C         42.82441        44.52503         0.53017
C         41.52657        43.80554         0.24009
C         42.74653        46.02154         0.29500
C         41.54495        46.70033         0.40860
C         42.81470        48.83609         0.23317
C         41.51112        48.26376         0.73920
C         43.71236        25.40782        -1.35269
C         45.11869        27.38899        -0.63696
C         43.91590        26.76039        -1.03152
C         45.18152        28.80826        -0.36497
C         43.95373        29.54504        -0.32631
C         45.24099        31.63672         0.06500
C         43.98690        30.94785        -0.07781
C         45.25506        33.06273         0.19732
C         44.03436        33.79567         0.22686
C         45.28368        35.90004         0.13127
C         44.06387        35.20864         0.19313
C         45.26968        37.37485        -0.16419
C         44.10227        38.11490         0.45427
C         45.27818        40.22486        -0.03957
C         44.06740        39.57739         0.25006
C         45.23090        41.63955        -0.44114
C         43.99639        42.40174        -0.15892
C         45.20955        44.55185        -0.29495
C         44.04050        43.83743        -0.07768
C         45.19228        46.00824        -0.11889
C         44.02654        46.70122         0.14247
C         43.82551        48.11344         0.22059
C         47.46551        27.36664        -0.20356
C         46.39705        26.78775        -0.49778
C         47.66359        28.75798        -0.00606
C         46.42304        29.48300        -0.10733
C         47.72075        31.60826         0.19664
C         46.46602        30.90938         0.05478
C         47.71783        33.02334         0.25133
C         46.49816        33.76597         0.24978
C         47.75351        35.93632         0.30694
C         46.50740        35.19894         0.20664
C         47.75520        37.39927         0.24760
C         46.56294        38.10552         0.05287
C         47.77473        40.25866        -0.10246
C         46.53642        39.52949        -0.05051
C         47.79734        41.67165        -0.32399
C         46.53321        42.36478        -0.70445
C         47.78108        44.56077        -0.47558
C         46.46832        43.89123        -0.89773
C         47.55618        45.94654        -0.35358
C         46.48960        46.59914        -0.29998
C         50.11983        28.82108         0.57686
C         48.87201        29.41689         0.28546
C         50.20369        31.49836         0.62182
C         48.96077        30.86061         0.34251
C         50.29204        32.97391         0.47849
C         48.97845        33.77736         0.25865
C         50.16133        35.96501         0.86688
C         48.93593        35.23664         0.48896
C         50.20617        37.42535         0.58514
C         48.99399        38.12811         0.31651
C         50.24042        40.27708         0.16476
C         49.00471        39.55022         0.11779
C         50.25716        41.71185         0.04007
C         49.00791        42.39619        -0.20133
C         50.24814        44.40935        -0.08230
C         48.95541        43.85907        -0.28912
C         51.20765        29.33381         0.92700
C         52.50588        31.52645         1.36529
C         51.39597        30.74235         0.99317
C         52.45207        32.79979         1.34365
C         51.48392        33.70957         0.99194
C         52.62660        36.03526         0.96486
C         51.45858        35.16495         1.15373
C         52.53156        37.27020         0.88185
C         51.42771        38.13652         0.59528
C         52.58085        40.37918         0.41880
C         51.45552        39.53250         0.38949
C         52.64349        41.63140         0.33275
C         51.51080        42.45057         0.15294
C         51.36221        43.86300         0.05757
O         44.93733        37.48542        -1.65296
O         49.88741        33.43785        -0.85569
O         50.60853        35.60416         2.24336
O         43.64902        37.61480         1.74749
O         39.76011        28.68083        -1.95877
O         38.18776        27.57788         0.95045
O         41.54706        26.11046        -2.65301
O         31.95410        30.96046         2.09305
O         31.44651        34.77009         2.32379
O         45.81370        41.74066        -1.82582
O         36.70246        38.65497         1.84904
H         37.01021        37.91307         2.42524
O         37.74681        36.79630        -1.19259
H         37.54825        37.55162        -1.79601
O         41.45414        48.37790         2.13482
H         41.45356        49.32507         2.38249
O         46.37367        44.15223        -2.32078
H         45.94869        43.35838        -2.72588
O         41.95089        35.28969         2.18189
H         41.20278        34.90785         2.68593
O         45.98291        36.79609        -2.37893
H         46.51308        37.53791        -2.76030
O         42.44664        36.02262        -1.36287
H         43.23068        36.40606        -1.82469
O         37.93661        36.38532         2.42757
H         37.80127        35.56826         2.95221
O         43.03680        44.40295         1.98253
H         42.29760        44.86473         2.43339
O         36.64293        39.08872        -1.78454
H         36.67726        39.92371        -2.29768
