         420
 CSIRO Nanostructure Databank - Neutral Graphene Oxide Data Set
C         27.97329        27.29132         0.18314
C         27.93408        28.71031         0.13776
C         26.69881        29.39887         0.01171
C         27.85412        31.54877         0.00150
C         26.66453        30.77515        -0.05981
C         27.79991        32.99798        -0.07483
C         26.65279        33.71090        -0.32589
C         27.77617        35.89399        -0.37236
C         26.62459        35.15160        -0.32919
C         27.82642        37.35608        -0.33458
C         26.63764        38.10133        -0.10989
C         27.85519        40.21165        -0.18561
C         26.65033        39.48023        -0.04549
C         27.88297        41.65715        -0.15223
C         26.74458        42.39477         0.35237
C         27.81444        44.56303        -0.07196
C         26.74670        43.74700         0.50204
C         28.03384        45.95096         0.38528
C         30.39516        27.33897         0.42137
C         29.17443        26.62681         0.31791
C         30.39848        28.75335         0.29921
C         29.15157        29.45443         0.19279
C         30.34491        31.62659         0.13749
C         29.10414        30.88193         0.13074
C         30.34054        33.04439         0.12504
C         29.03267        33.79930         0.29361
C         30.27498        35.94499        -0.22042
C         29.06099        35.09863        -0.54083
C         30.30928        37.32765        -0.83150
C         29.03798        38.07136        -0.47831
C         30.31202        40.20418        -0.53498
C         29.06405        39.48961        -0.40203
C         30.32200        41.62993        -0.59516
C         29.07449        42.33296        -0.45896
C         30.31931        44.53680        -0.57139
C         29.07311        43.79817        -0.56559
C         30.24634        46.02329        -0.79330
C         29.14543        46.63171         0.05876
C         32.82135        24.48343         0.13501
C         31.72178        25.12781         0.54505
C         32.95555        27.37032         0.35178
C         31.65697        26.60978         0.64539
C         32.86835        28.81328         0.06797
C         31.63592        29.48695         0.16264
C         32.78707        31.66607        -0.07344
C         31.58728        30.93149         0.07360
C         32.79792        33.07919        -0.02793
C         31.54867        33.75572         0.07341
C         32.82211        35.95390        -0.11302
C         31.55097        35.23222         0.04595
C         32.81842        37.37755        -0.31436
C         31.58765        38.07997        -0.53535
C         32.78727        40.22963        -0.80439
C         31.54071        39.47943        -0.60713
C         32.78778        41.69289        -0.66824
C         31.55443        42.35610        -0.69104
C         32.82329        44.54481        -0.53445
C         31.56851        43.83471        -0.99703
C         32.78734        45.96274        -0.38018
C         31.57788        46.70554        -0.55750
C         32.80592        48.77548        -0.21274
C         31.62231        48.09225        -0.52848
C         35.38666        23.08210        -0.20575
C         35.34308        24.47171        -0.24014
C         34.01462        25.17659        -0.48149
C         35.31464        27.36625        -0.63226
C         34.10550        26.63296        -0.13197
C         35.31823        28.83614        -0.30198
C         34.08616        29.49971        -0.21063
C         35.34913        31.72303        -0.31407
C         34.03202        30.95350        -0.37238
C         35.29667        33.14323         0.06487
C         34.04262        33.81870         0.05065
C         35.22085        36.00308         0.45472
C         34.00825        35.24928         0.08590
C         35.26789        37.44979         0.14858
C         34.06352        38.07214        -0.25964
C         35.32269        40.27044        -0.40635
C         34.10942        39.48190        -0.65652
C         35.25448        41.67404        -0.46074
C         34.03231        42.38534        -0.55408
C         35.21731        44.54096        -0.00216
C         34.02559        43.83981        -0.38512
C         35.19811        45.92247         0.15985
C         33.99323        46.66098        -0.05617
C         35.19277        48.79893         0.49197
C         33.98111        48.08211         0.08200
C         35.11597        50.16117         0.82949
C         37.80709        23.07451         0.07153
C         36.59114        22.39017        -0.03818
C         37.80297        24.50416        -0.00968
C         36.56454        25.21524        -0.16009
C         37.78803        27.36285        -0.10586
C         36.58434        26.63925        -0.24465
C         37.79602        28.80974        -0.08140
C         36.56166        29.54124        -0.20563
C         37.78461        31.67541         0.11597
C         36.58296        30.95916        -0.09666
C         37.76507        33.10832         0.23605
C         36.52017        33.79867         0.31003
C         37.79648        35.98237         0.69086
C         36.50564        35.22824         0.67088
C         37.76834        37.49403         0.48875
C         36.49187        38.16442         0.15095
C         37.78680        40.26538        -0.16208
C         36.53641        39.55852        -0.14762
C         37.77805        41.68206        -0.21592
C         36.52604        42.47985        -0.49242
C         37.76855        44.51504         0.25732
C         36.45785        43.74357         0.36377
C         37.74819        45.93343         0.67885
C         36.41399        46.64759         0.61685
C         37.65247        48.82450         0.85745
C         36.43356        48.12262         0.60789
C         37.49751        50.18880         1.21438
C         36.25658        50.83145         1.24494
C         40.34149        20.25301         0.27710
C         39.12128        20.96205         0.33380
C         40.28380        23.10977         0.21270
C         39.06865        22.36296         0.22796
C         40.27858        24.50552         0.08279
C         39.03164        25.22466         0.02245
C         40.25595        27.37164         0.13076
C         39.02713        26.64674         0.01120
C         40.23198        28.77562         0.24873
C         39.01283        29.50930         0.14040
C         40.22575        31.69216         0.28004
C         39.02453        30.95957         0.20478
C         40.23902        33.11658         0.23465
C         39.00468        33.83439         0.28862
C         40.24992        35.97293         0.27929
C         39.03782        35.25412         0.38808
C         40.24701        37.41785         0.16821
C         39.03922        38.15044         0.13515
C         40.27450        40.23962        -0.26693
C         39.04357        39.55411        -0.09330
C         40.22484        41.70293        -0.45784
C         38.96658        42.40617        -0.15506
C         40.24527        44.51675         0.28287
C         38.94659        43.84117         0.02248
C         40.25651        45.99807         0.63328
C         38.98193        46.76365         0.63023
C         40.28819        48.92387         0.80686
C         38.95406        48.13503         0.73744
C         40.25467        50.25571         0.04912
C         39.37227        51.31663         0.50916
C         40.47980        53.06354        -0.75960
C         39.40535        52.61457         0.04790
C         42.79043        20.21571        -0.02761
C         41.55461        20.91275         0.20471
C         42.69839        23.08410        -0.36842
C         41.60317        22.40095         0.44972
C         42.76940        24.55156         0.01312
C         41.52402        25.25026         0.06420
C         42.75812        27.36863         0.20644
C         41.51275        26.65744         0.15753
C         42.77403        28.78544         0.30489
C         41.49567        29.47807         0.52674
C         42.75988        31.68774         0.19592
C         41.50396        30.99961         0.50305
C         42.72631        33.11131         0.07614
C         41.47873        33.82854         0.20217
C         42.72470        35.96980         0.16589
C         41.48557        35.25055         0.19215
C         42.70193        37.38513         0.15474
C         41.49098        38.11713         0.05322
C         42.76413        40.25353        -0.19104
C         41.51737        39.55046        -0.13572
C         42.81329        41.66520        -0.77652
C         41.51728        42.48397        -0.59871
C         42.70123        44.56126         0.17189
C         41.52100        43.87806        -0.10189
C         42.73797        45.96960         0.42946
C         41.52937        46.72355         0.47731
C         42.76315        48.77840         0.09663
C         41.52106        48.11845         0.38766
C         42.79445        50.10662        -0.41994
C         41.52725        50.81367        -0.64937
C         42.82942        52.78355        -1.43150
C         41.58275        52.24966        -0.96857
C         43.95773        20.86780        -0.28164
C         45.29715        23.06532         0.00946
C         44.02859        22.34111        -0.33279
C         45.21735        24.47382         0.56553
C         43.97183        25.22849         0.17432
C         45.23007        27.37169         0.26251
C         43.99169        26.65563         0.23564
C         45.22605        28.79185         0.21088
C         43.98290        29.50805         0.26460
C         45.20405        31.63301        -0.07988
C         43.98318        30.95522         0.15734
C         45.14822        33.07287        -0.54269
C         43.92824        33.82470        -0.09451
C         45.21681        35.91419        -0.01696
C         43.97008        35.23945         0.03341
C         45.27106        37.34143         0.28736
C         43.95044        38.13170         0.34622
C         45.25195        40.21685         0.06443
C         43.98932        39.57651         0.04748
C         45.31955        41.68785        -0.02075
C         44.07025        42.43648        -0.33500
C         45.22244        44.48825         0.70803
C         43.95328        43.78534         0.30266
C         45.20637        45.95887         0.70122
C         44.00342        46.66149         0.54176
C         45.22001        48.79420         0.14367
C         44.00049        48.08871         0.29947
C         45.25103        50.09905        -0.41307
C         44.00846        50.75340        -0.72571
C         43.98604        52.06391        -1.32698
C         47.67958        23.07357         0.54513
C         46.54745        22.35827         0.38292
C         47.70890        24.52619         0.38011
C         46.50381        25.23674         0.34152
C         47.71032        27.37094         0.17783
C         46.48497        26.65699         0.25792
C         47.70446        28.80743         0.09101
C         46.45958        29.50899         0.10110
C         47.68075        31.61526        -0.28597
C         46.44052        30.92936        -0.07960
C         47.66060        33.05735        -0.59301
C         46.43096        33.82607        -0.35892
C         47.72678        35.94144        -0.23357
C         46.45607        35.21109        -0.24511
C         47.73815        37.37665        -0.07974
C         46.51648        38.08189         0.06725
C         47.73124        40.18609         0.30814
C         46.48808        39.49331         0.16133
C         47.71014        41.59408         0.73409
C         46.49480        42.39085         0.54898
C         47.76995        44.50501         0.72161
C         46.52106        43.76427         0.65739
C         47.76179        45.92936         0.70630
C         46.48508        46.65078         0.86780
C         47.75844        48.80180         0.20675
C         46.48371        48.18204         0.57006
C         47.71178        50.09551        -0.36984
C         46.51341        50.72781        -0.63637
C         50.19772        24.54497         0.22367
C         48.95010        25.23176         0.25963
C         50.18695        27.36362         0.05449
C         48.94762        26.65405         0.15973
C         50.18413        28.80026         0.00546
C         48.92848        29.52044         0.00169
C         50.16210        31.68623        -0.19467
C         48.91331        30.94350        -0.17616
C         50.20291        33.05573        -0.34884
C         48.96924        33.81332        -0.62120
C         50.19807        35.95445        -0.25836
C         48.94656        35.26468        -0.35467
C         50.21153        37.37626        -0.16745
C         48.96845        38.09327        -0.07270
C         50.20140        40.25277         0.18302
C         48.95762        39.51215         0.16230
C         50.24887        41.61407         0.41368
C         49.04000        42.35597         0.80102
C         50.22741        44.52000         0.45653
C         49.00401        43.81748         0.65669
C         50.22036        45.95533         0.45566
C         48.97860        46.65567         0.57588
C         50.22192        48.78106         0.39237
C         48.97157        48.09485         0.42215
C         51.38381        25.22791         0.11727
C         52.66312        27.36407        -0.05675
C         51.41609        26.65009         0.03921
C         52.63867        28.78888        -0.11648
C         51.40315        29.49299        -0.04748
C         52.67820        31.65860        -0.30181
C         51.43043        30.97701         0.21189
C         52.66620        33.10199        -0.40201
C         51.45180        33.79928        -0.32431
C         52.67042        35.94619        -0.31238
C         51.43714        35.23516        -0.31330
C         52.67002        37.37602        -0.22888
C         51.45261        38.06897        -0.16402
C         52.68447        40.19012         0.38415
C         51.46660        39.57255        -0.29698
C         52.70536        41.68326         0.17186
C         51.48086        42.37809         0.26159
C         52.68445        44.54525        -0.11580
C         51.44011        43.79623         0.27148
C         52.69881        45.98987         0.31228
C         51.46538        46.68069         0.40132
C         51.41593        48.10965         0.44520
C         55.10463        27.41540        -0.10222
C         53.92170        26.70286        -0.05232
C         55.09483        28.82603        -0.22405
C         53.86647        29.51209        -0.26262
C         55.09546        31.61095        -1.00267
C         53.84480        30.94853        -0.46046
C         55.11518        33.10896        -0.78499
C         53.90678        33.81302        -0.55029
C         55.14125        35.94840        -0.57816
C         53.90909        35.23773        -0.46418
C         55.15510        37.39577        -0.42562
C         53.93825        38.09916        -0.22643
C         55.18242        40.21035         0.00004
C         53.96635        39.49723        -0.00769
C         55.19023        41.66280         0.18507
C         53.95484        42.38026         0.16662
C         55.17389        44.50561         0.29896
C         53.95844        43.79867         0.17527
C         55.14918        45.94297         0.38510
C         53.95977        46.63803         0.42177
C         56.33543        29.58543        -0.25104
C         56.34727        30.90318        -0.53351
C         56.29768        33.83212        -0.95187
C         56.31602        35.22307        -0.83315
C         56.36526        38.12635        -0.43328
C         56.38078        39.49564        -0.23820
C         56.38938        42.39336         0.31268
C         56.38540        43.77997         0.39535
O         46.47472        47.64904         1.93232
O         37.86754        36.88707         1.83005
O         44.92001        22.87678        -1.39100
O         48.31154        33.41278        -1.88262
O         30.73371        35.88768         1.15298
O         45.09073        42.33217        -1.38580
O         44.64162        37.72357         1.56754
O         48.38831        41.84559         2.00835
O         34.69367        31.42974        -1.59758
O         32.48114        27.08196         1.75295
O         41.50366        30.25115         1.78057
O         40.29420        44.98748         1.69287
O         40.45594        50.10409        -1.37361
O         38.55773        51.01852         1.60058
O         28.03716        44.34925        -1.50021
O         33.52944        39.74909        -1.98479
O         40.67377        42.26063        -1.76957
O         44.35178        43.83051         1.71926
O         36.93919        46.12285         1.90436
O         35.65812        35.58380         1.80247
O         33.76944        25.09989        -1.93226
H         34.36443        25.76402        -2.36126
O         51.48435        31.10772         1.68487
H         52.29408        30.64382         1.98759
O         42.25909        23.04925        -1.74836
H         43.05139        23.23128        -2.30149
O         55.05760        31.42701        -2.46152
H         55.00059        30.46252        -2.63017
O         52.63048        44.61239        -1.61051
H         53.45928        45.05057        -1.90172
O         51.59614        39.85806        -1.72044
H         50.84355        39.43615        -2.18497
O         28.87248        34.09984         1.69888
H         29.59887        34.72375         1.94888
O         40.50484        49.26126         2.19981
H         40.52742        48.42983         2.71882
O         36.32603        43.36530         1.75435
H         36.43595        44.19170         2.28269
O         36.66061        42.96754        -1.86233
H         36.66306        42.19460        -2.46512
O         42.92418        41.42699        -2.19950
H         43.88306        41.49985        -2.42637
O         31.56375        43.92467        -2.47750
H         31.21226        44.82020        -2.70865
O         44.99694        32.96665        -2.02685
H         45.89107        32.79449        -2.39725
O         45.10531        24.28335         2.01533
H         45.02012        25.16792         2.42935
O         52.51201        39.97297         1.81759
H         53.27697        40.37483         2.27980
O         30.29800        37.12932        -2.28982
H         30.39643        38.01008        -2.71167
O         29.16439        34.68248        -1.92305
H         29.37112        35.48315        -2.46076
O         29.90180        46.22631        -2.21183
H         29.06021        45.72144        -2.35015
O         41.95793        22.58525         1.85230
H         41.26625        22.15560         2.39761
O         35.28995        27.32223        -2.12973
H         36.04144        27.86856        -2.44751
H         27.03192        26.72660         0.12528
H         25.76580        28.81872        -0.03148
H         25.69248        31.27785        -0.15272
H         25.69799        33.19470        -0.50307
H         25.63637        35.63489        -0.31797
H         25.68060        37.57588         0.00831
H         25.69900        40.00893         0.10051
H         25.89860        41.82702         0.76318
H         25.94720        44.24662         1.06898
H         27.26831        46.40658         1.03276
H         29.17902        25.52990         0.37077
H         29.26893        47.66315         0.42156
H         32.80539        23.38393         0.11864
H         30.86232        24.54550         0.91155
H         32.77867        49.87228        -0.18845
H         30.71513        48.67461        -0.74053
H         34.46414        22.49696        -0.31508
H         34.15802        50.69475         0.81724
H         36.56099        21.29332        -0.00814
H         36.20981        51.88189         1.55847
H         40.31472        19.15483         0.21132
H         38.19275        20.37732         0.36917
H         40.52013        54.11972        -1.06158
H         38.67010        53.33757         0.42437
H         42.76661        19.11514        -0.04631
H         42.84876        53.81157        -1.82171
H         44.87201        20.29671        -0.49645
H         44.92540        52.51996        -1.66421
H         48.61250        22.54821         0.79109
H         46.56036        21.26178         0.45974
H         48.64786        50.61018        -0.62653
H         46.54712        51.73538        -1.06998
H         50.22335        23.44883         0.27299
H         50.23020        49.87912         0.36305
H         52.32022        24.65564         0.09080
H         52.34831        48.68911         0.44710
H         56.06792        26.88662        -0.06842
H         53.96923        25.60811         0.01433
H         56.10201        46.48056         0.49207
H         53.99912        47.72380         0.58751
H         57.26953        29.05607        -0.00861
H         57.30422        31.44423        -0.54525
H         57.23642        33.31409        -1.19030
H         57.27407        35.74290        -0.96383
H         57.32144        37.61086        -0.59235
H         57.34371        40.02263        -0.26565
H         57.35232        41.86714         0.35985
H         57.33204        44.32611         0.51424
