         324
 CSIRO Nanostructure Databank - Neutral Graphene Oxide Data Set
C          2.39993         2.25793        -3.52109
C          2.22507         3.61205        -3.15819
C          3.60480         1.60776        -3.32038
C          3.27869         4.38741        -2.66809
C          1.97110         6.50177        -2.60146
C          1.81401         7.84103        -2.26750
C          3.15566         5.77180        -2.36324
C          2.82523         8.59649        -1.61805
C          1.43179        10.64516        -1.41994
C          1.37819        12.00792        -1.23777
C          2.61692         9.90057        -1.14109
C          2.55196        12.75523        -0.86065
C          1.51233        15.01441        -1.68205
C          1.62754        16.37118        -1.89390
C          2.54511        14.25242        -0.94567
C          2.78780        17.12538        -1.56168
C          2.87980        18.53281        -1.69988
C          4.70861         2.28673        -2.73072
C          4.67303         3.79247        -2.61198
C          5.86437         1.61340        -2.38601
C          5.46295         4.29340        -1.41207
C          4.34300         6.51177        -1.86963
C          4.16629         7.97484        -1.50238
C          5.46176         5.76998        -1.23859
C          5.18253         8.61277        -0.63463
C          3.61067        10.56367        -0.21247
C          3.67179        12.07231        -0.43470
C          4.97446         9.89424        -0.17065
C          4.97029        12.76151        -0.23207
C          3.82491        14.98636        -0.69976
C          4.05758        16.37278        -1.26945
C          5.09339        14.23127        -0.46010
C          5.02019        17.11628        -0.36488
C          3.99950        19.24692        -1.31549
C          5.05709        18.63497        -0.49866
C          6.92276         2.17279        -1.58977
C          6.61853         3.46997        -0.87880
C          8.12501         1.47693        -1.57866
C          7.67542         4.26237        -0.18490
C          6.46076         6.43315        -0.54787
C          6.37679         7.87052        -0.28283
C          7.61819         5.67859        -0.06227
C          7.39278         8.51432         0.43235
C          6.04127        10.57166         0.57473
C          6.03388        12.11871         0.58708
C          7.33389         9.90728         0.75307
C          7.29961        12.82462         0.79709
C          6.25164        14.98486         0.07957
C          6.25334        16.39379         0.03856
C          7.36716        14.27453         0.60201
C          7.39316        17.12903         0.43175
C          6.32359        19.28815        -0.19841
C          7.42406        18.57974         0.30894
C          9.17529         1.72521        -0.62373
C          8.77108         3.61388         0.38960
C         10.53403         1.63028        -0.70283
C          9.98208         4.25309         0.73590
C          8.69270         6.33184         0.58204
C          8.52375         7.74101         0.97053
C          9.90238         5.65956         0.91580
C          9.70281         8.48763         1.52554
C          8.47102        10.65203         1.14763
C          8.42530        12.09140         1.17180
C          9.72117         9.96735         1.45406
C          9.70515        12.83722         1.26043
C          8.50923        15.00990         0.98789
C          8.55382        16.42175         0.86230
C          9.65011        14.29556         1.66947
C          9.77137        17.13858         1.13729
C          8.62686        19.25773         0.63348
C          9.79813        18.56461         1.02190
C         11.42360         2.18618         0.33271
C         11.21687         3.51715         0.92966
C         12.61994         1.53806         0.52517
C         12.31372         4.21020         1.47450
C         11.05082         6.35853         1.44030
C         10.98408         7.75960         1.65389
C         12.25441         5.62847         1.71442
C         12.07427         8.43750         2.21454
C         10.88888        10.63405         1.75848
C         10.96757        12.08585         1.52704
C         12.08511         9.92503         2.28609
C         12.20457        12.84998         1.79903
C         10.97646        15.00686         1.53569
C         10.98414        16.42972         1.41549
C         12.19148        14.27465         1.65665
C         12.19462        17.16367         1.58288
C         11.01674        19.26549         1.24064
C         12.22045        18.58657         1.49459
C         13.63679         2.02396         1.44978
C         13.52998         3.48923         1.90329
C         14.96852         1.41147         1.44297
C         14.80043         4.21116         2.15580
C         13.35684         6.30339         2.31530
C         13.12991         7.62930         2.69633
C         14.69847         5.64355         2.70386
C         14.94319         8.75112         2.60600
C         13.42448        10.70554         2.22312
C         13.41167        12.14370         1.83464
C         14.69884         9.97463         2.04244
C         14.62827        12.83212         1.59356
C         13.44040        14.96655         1.68298
C         13.44076        16.43777         1.81934
C         14.64231        14.24221         1.61957
C         14.76186        17.21707         1.65049
C         13.47268        19.31215         1.58701
C         14.71644        18.71754         1.53710
C         16.09946         2.10061         1.77167
C         16.02264         3.56724         2.01677
C         17.31952         1.26468         1.94016
C         17.24554         4.36067         2.13263
C         15.96708         6.47483         2.38291
C         16.01027         7.87274         2.20532
C         17.22499         5.76494         2.32403
C         17.11125         8.52245         1.53893
C         15.75537        10.55559         1.19357
C         15.78291        12.07104         1.07059
C         17.04722         9.84813         1.11040
C         17.06394        12.71712         0.74839
C         15.94791        14.93903         1.53272
C         15.92021        16.38907         1.25283
C         17.15864        14.16942         0.99289
C         17.02761        16.93431         0.66907
C         15.94115        19.50134         1.70887
C         17.14167        19.11494         1.12410
C         18.52414         1.61792         1.42650
C         18.49417         3.76882         1.75304
C         19.87505         1.08629         1.60738
C         19.70805         3.99421         2.35376
C         18.45414         6.51760         2.14863
C         18.33546         7.75157         1.36195
C         19.73531         6.03170         2.42447
C         19.57541         8.45905         0.92755
C         18.20956        10.54199         0.60939
C         18.16366        11.97768         0.35303
C         19.45557         9.89208         0.59577
C         19.34940        12.65343        -0.27002
C         18.32198        14.91205         0.48956
C         18.30252        16.29136         0.55482
C         19.44286        14.20075        -0.16582
C         19.54055        17.10835         0.68589
C         18.51301        19.41704         1.34124
C         19.60412        18.59848         0.91572
C         20.97809         1.86918         1.78872
C         20.98302         3.32921         2.08389
C         22.33813         1.24109         1.96157
C         22.21968         4.22608         1.74830
C         20.96058         6.47522         1.77996
C         20.91070         7.96572         1.47095
C         22.10537         5.70811         1.49503
C         22.02771         8.45736         0.61023
C         20.62384        10.53377         0.08365
C         20.56271        11.81237        -0.47384
C         21.84112         9.72348        -0.09356
C         21.74349        12.35983        -1.07448
C         20.70209        15.00359        -0.27647
C         20.80919        16.35103         0.36295
C         21.73605        14.60398        -1.05154
C         22.04711        17.12320         0.11083
C         20.89388        19.16363         0.94030
C         22.09418        18.50299         0.53656
C         23.42822         2.05650         1.28982
C         23.37163         3.48009         1.17576
C         24.53339         1.36249         0.82855
C         24.47523         4.18185         0.64703
C         23.26818         6.34792         0.87119
C         23.22103         7.75751         0.50954
C         24.43715         5.62684         0.52910
C         24.42633         8.45580         0.08428
C         23.13453        10.47840        -0.50901
C         23.02526        11.90368        -0.79830
C         24.41598         9.86585        -0.17584
C         24.23482        12.75717        -0.62088
C         23.09920        15.19820        -1.14746
C         23.16374        16.52299        -0.43771
C         24.23686        14.26768        -0.65030
C         24.44270        17.15467        -0.38167
C         23.31970        19.19131         0.43568
C         24.51398        18.54432         0.02267
C         25.66332         2.03791         0.29764
C         25.64363         3.46715         0.24049
C         26.79168         1.31562        -0.14602
C         26.81085         4.15842        -0.19855
C         25.62057         6.30998         0.05547
C         25.62192         7.72793        -0.03929
C         26.81637         5.58672        -0.26578
C         26.89788         8.45813        -0.18914
C         25.58212        10.65096        -0.35408
C         25.54157        12.03491        -0.65720
C         26.88981         9.96944        -0.24532
C         26.73050        12.75698        -1.02122
C         25.56157        14.95547        -0.78700
C         25.59847        16.38434        -0.60884
C         26.70294        14.20805        -1.07002
C         26.89284        17.05520        -0.42447
C         25.75175        19.22168        -0.05190
C         26.94934        18.53120        -0.36072
C         27.93114         1.98468        -0.62337
C         27.95239         3.41968        -0.61630
C         29.06690         1.27499        -1.11800
C         29.12452         4.10309        -1.04483
C         28.02539         6.25438        -0.65925
C         27.99177         7.73678        -0.94520
C         29.16752         5.53686        -0.99057
C         29.33966         8.41930        -0.99357
C         28.11022        10.71432        -0.70960
C         27.94873        12.06530        -1.24809
C         29.40686         9.88808        -1.00576
C         29.13078        12.71845        -1.85651
C         27.94111        14.94686        -1.42626
C         28.13813        16.30396        -0.84649
C         29.18449        14.22026        -1.86490
C         29.33927        17.06030        -1.21626
C         28.17550        19.16459        -0.56961
C         29.35253        18.46582        -1.00369
C         30.15747         1.95390        -1.62472
C         30.20730         3.36936        -1.60167
C         31.27920         4.09647        -2.25131
C         30.52377         6.19419        -1.15699
C         30.47221         7.69765        -1.36609
C         31.37975         5.44128        -2.14984
C         31.64616         8.37480        -1.77185
C         30.53108        10.52617        -1.68742
C         30.45636        11.97732        -1.98300
C         31.63637         9.75495        -2.02111
C         31.68456        12.78373        -1.91529
C         30.47848        14.92329        -1.79555
C         30.49183        16.36657        -1.68616
C         31.67052        14.15681        -1.82240
C         31.65913        17.12609        -1.95342
C         30.54559        19.17888        -1.28833
C         31.67184        18.50830        -1.75964
O         14.25428        16.85764         2.97370
O         28.26642        14.85257        -2.84673
O         12.69586        10.50247         3.47416
O         14.06168         8.22673         3.56381
O          2.86576        14.89468         0.37650
O         19.78105         4.96901         3.36269
O         24.05679        13.60771         0.62829
O         21.59350        13.49157        -1.88593
O          5.30810         3.49787        -0.20471
O         27.76607        16.38258         0.56242
O         20.36061        16.44139         1.74376
O         27.18709         9.24289         0.99675
O         10.55363        12.49445         0.12964
O         22.34915         9.68148        -1.46049
O         15.31799        11.18898        -0.04042
O         13.20162         2.38042         2.80428
O          8.67527         2.23924         0.59126
O         16.95869        14.45184         2.45759
O         18.98744        13.52578        -1.38699
O         29.17485        10.60774         0.28148
O         18.49611         2.83483         0.70045
O          5.55278        11.35966         1.72844
O          4.75177         7.58467        -2.79527
O          4.44439        17.90578         0.67513
O         21.95925         3.72221         3.09765
O         16.95556        18.18530         0.07477
O          8.67831         7.94900         2.43183
O         29.56511        12.17950        -3.15689
O         18.87342         7.60048        -0.02043
O          5.48123        13.29195        -1.52405
O          9.33474        14.26334         3.10268
H          9.23969        15.18868         3.41302
O         27.51021         7.83971        -2.34060
H         28.06290         7.25243        -2.89965
O          3.05412        10.37519         1.13425
H          3.70647        10.76840         1.76357
O         21.03108         8.65764         2.76284
H         21.85405         8.34948         3.19882
O          4.77164        16.20516        -2.52869
H          4.22285        15.65827        -3.12884
O         31.19974         6.04432         0.13928
H         31.24636         5.08395         0.33366
O         14.67553         5.48891         4.15068
H         14.52341         6.38357         4.53092
O         22.35030        -0.10930         1.50574
H         22.19206        -0.11331         0.53961
O         23.37334        15.44526        -2.55282
H         22.91702        14.74255        -3.06632
O          5.39131         4.31104        -3.77508
H          4.85238         4.12262        -4.57169
H          1.54265         1.70346        -3.92723
H          1.22173         4.04848        -3.25946
H          3.69517         0.53267        -3.53433
H          1.10924         5.98561        -3.04696
H          0.83373         8.30134        -2.45066
H          0.56301        10.14289        -1.86846
H          0.45511        12.54706        -1.48931
H          0.59097        14.50394        -1.99507
H          0.77139        16.90948        -2.33036
H          2.03433        19.07056        -2.15710
H          5.95751         0.55328        -2.67191
H          4.07007        20.32047        -1.54409
H          8.25175         0.65900        -2.30605
H          6.43777        20.35644        -0.43639
H         11.00682         1.12926        -1.56075
H          8.66192        20.35351         0.54010
H         12.85304         0.64159        -0.06881
H         11.02422        20.36175         1.14972
H         15.03814         0.34182         1.19261
H         13.41117        20.41084         1.58955
H         17.19688         0.31141         2.47486
H         15.89756        20.37419         2.37801
H         20.02771        -0.00613         1.58843
H         18.77301        20.35698         1.85346
H         22.56515         1.21225         3.06269
H         20.97733        20.22815         1.21003
H         24.55146         0.26608         0.91302
H         23.36185        20.25464         0.71533
H         26.77564         0.21645        -0.11437
H         25.78845        20.30485         0.13770
H         29.04564         0.17591        -1.12514
H         28.23311        20.25914        -0.47117
H         31.00437         1.39763        -2.05204
H         31.98280         3.53032        -2.88036
H         32.18972         5.96659        -2.67540
H         32.56383         7.80719        -1.97272
H         32.52278        10.22591        -2.46879
H         32.64473        12.25553        -1.83103
H         32.63420        14.67798        -1.73143
H         32.56338        16.62897        -2.32961
H         30.57314        20.26718        -1.13644
H         32.58760        19.07438        -1.98063
