         661
 CSIRO Nanostructure Databank - Neutral Graphene Oxide Data Set
C          5.89507        31.80437         0.11999
C          5.86709        33.16354         0.02865
C          8.49074        27.58914         0.11295
C          8.35827        28.95579        -0.26423
C          7.17643        29.68235         0.05656
C          8.29709        31.77727        -0.49067
C          7.11083        31.06176        -0.12259
C          8.29445        33.20057        -0.52853
C          7.05694        33.92524        -0.26503
C          8.23600        36.08463        -0.39510
C          7.04474        35.30905        -0.21522
C          8.26418        37.43322        -0.13271
C         10.97620        23.38313         0.41533
C         10.85999        24.69564        -0.10762
C          9.77768        25.53838         0.29079
C         10.46879        27.33285        -1.37583
C          9.61152        26.81648        -0.23407
C         10.61945        28.85427        -1.34513
C          9.45950        29.63641        -0.85114
C         10.69830        31.78142        -1.04674
C          9.48565        31.05902        -0.82763
C         10.71936        33.18450        -0.91522
C          9.49410        33.89354        -0.74719
C         10.72397        36.02380        -0.28138
C          9.48547        35.39588        -0.92085
C         10.70948        37.51833        -0.45908
C          9.49556        38.21207        -0.19004
C         10.81936        40.27102         0.32242
C          9.50853        39.58619         0.04822
C         10.79002        41.77536         0.28028
C         13.54021        19.19555         0.92161
C         13.42303        20.49466         0.41830
C         12.30580        21.28192         0.72958
C         13.13840        23.11910        -0.66381
C         12.11711        22.58772         0.17452
C         12.85801        24.29335        -1.36835
C         11.82329        25.18062        -1.04018
C         13.10095        27.40360        -1.19118
C         11.84164        26.60194        -1.64220
C         13.21691        28.79795        -1.19877
C         11.94994        29.55341        -1.46595
C         13.24644        31.78042        -1.32350
C         11.93741        31.05605        -1.39948
C         13.21553        33.21819        -0.98128
C         11.99162        33.90776        -0.88038
C         13.21242        36.01483        -0.65865
C         12.00390        35.31977        -0.67458
C         13.23410        37.49639        -0.76059
C         11.93646        38.25876        -0.75177
C         13.26089        40.35457        -0.12827
C         11.93376        39.77634        -0.61149
C         13.25336        41.75076         0.14949
C         11.98887        42.48116         0.20822
C         13.25354        44.61554         0.27706
C         12.03429        43.90412         0.26987
C         13.28353        46.03028         0.28257
C         16.05913        14.99937         1.85238
C         15.91677        16.25289         1.09615
C         14.74492        17.11052         1.23723
C         15.89955        19.03270         0.14245
C         14.70692        18.39706         0.72087
C         15.85006        20.37215        -0.30662
C         14.48762        20.99261        -0.55810
C         15.80777        23.24131        -0.77244
C         14.50751        22.51071        -0.56051
C         15.88495        24.71468        -0.99174
C         14.69905        25.39936        -1.36489
C         15.98683        27.59431        -0.54371
C         14.25011        26.60910        -0.83897
C         15.77188        28.93573        -0.97628
C         14.48411        29.55129        -1.08132
C         15.69414        31.73762        -1.11710
C         14.50168        31.00046        -1.16852
C         15.68942        33.19122        -1.01110
C         14.44992        33.90826        -0.89406
C         15.68430        36.04854        -0.73350
C         14.45041        35.32330        -0.75656
C         15.69192        37.46884        -0.47823
C         14.48787        38.20468        -0.42328
C         15.68006        40.22267         0.42293
C         14.44087        39.58834        -0.08642
C         15.70431        41.71512         0.57390
C         14.46305        42.47169         0.32763
C         15.74841        44.60571         0.24259
C         14.50066        43.88034         0.32244
C         15.73042        46.00125         0.11445
C         14.50276        46.74667         0.20389
C         15.77270        48.88243         0.23424
C         14.53808        48.16609         0.22571
C         15.81155        50.32079         0.39452
C         18.69163        11.03348         3.05020
C         18.60000        12.32947         2.50424
C         17.37807        13.03338         2.51015
C         18.53707        15.01093         1.56693
C         17.26566        14.32519         1.93670
C         18.49148        16.36810         0.94623
C         17.16663        16.92824         0.55706
C         18.34264        18.98476        -0.20705
C         17.13822        18.35507         0.19329
C         18.27926        20.32171        -0.64246
C         17.05049        21.03481        -0.66887
C         18.26046        23.16539        -1.08005
C         17.06583        22.47407        -0.93046
C         18.40925        24.66433        -0.83130
C         17.09530        25.40976        -0.81685
C         18.42451        27.50734        -1.15346
C         17.13381        26.82062        -0.80069
C         18.21813        28.97082        -1.47428
C         16.99583        29.64341        -1.28777
C         18.16133        31.79029        -1.42904
C         16.96668        31.07400        -1.28730
C         18.23323        33.23368        -1.03271
C         16.88574        33.91810        -1.00192
C         18.15736        36.05669        -0.93686
C         16.89155        35.33513        -0.89453
C         18.14776        37.43856        -0.51936
C         16.96519        38.11144        -0.28300
C         18.24422        40.27488         0.11912
C         16.98931        39.49225         0.25756
C         18.25272        41.68589         0.18044
C         17.02318        42.44892         0.46005
C         18.23666        44.55639         0.05153
C         17.01520        43.89906         0.19212
C         18.27869        46.06604         0.15562
C         16.97570        46.72287        -0.34409
C         18.24430        48.90621         0.00308
C         16.96945        48.17763         0.02935
C         18.27401        50.20533         0.78102
C         17.00097        51.02095         0.59165
C         18.25431        53.12031         1.06355
C         17.05585        52.42962         0.73915
C         18.34043        54.49710         1.27323
C         21.34465         7.16383         4.63510
C         21.22588         8.29260         3.84274
C         19.85992         8.86665         3.57893
C         20.99045        10.72073         2.29306
C         19.88164        10.26623         2.99977
C         20.92261        12.02083         1.59645
C         19.76998        12.90226         1.86089
C         20.95729        14.85310         0.88745
C         19.76828        14.20782         1.40170
C         20.92599        16.21647         0.43456
C         19.69089        16.95294         0.30890
C         20.83351        18.95526        -0.55186
C         19.62177        18.25641        -0.19344
C         20.80268        20.31394        -0.85716
C         19.49470        20.95216        -1.26169
C         20.68361        23.16372        -1.29673
C         19.49610        22.45374        -1.16741
C         20.65501        24.54650        -1.78904
C         19.51328        25.30882        -1.69818
C         20.05801        27.72905        -3.03127
C         19.12739        26.69328        -2.29936
C         20.51343        29.01195        -2.38213
C         19.38089        29.70000        -1.84911
C         20.55240        31.85128        -2.10996
C         19.36842        31.13395        -1.79840
C         20.51316        33.33122        -2.20602
C         19.17568        34.02762        -1.93247
C         20.57122        36.17705        -1.56117
C         19.31327        35.42574        -1.37687
C         20.59916        37.57246        -1.02808
C         19.46326        38.07499        -0.16445
C         20.66696        40.27367        -0.21992
C         19.43791        39.58294        -0.14457
C         20.69044        41.68446        -0.09445
C         19.46620        42.40314         0.02966
C         20.72658        44.53277         0.06087
C         19.47232        43.83999         0.04223
C         20.78489        45.95685         0.01303
C         19.54979        46.68402        -0.48664
C         20.79137        48.87635         0.26029
C         19.55445        48.20332        -0.23060
C         20.79136        50.19333         0.64000
C         19.53089        51.02132         0.43746
C         20.76674        52.96808         1.58580
C         19.48002        52.29810         1.24257
C         20.76624        54.41978         1.74448
C         19.58161        55.16690         1.58181
C         20.85134        57.31007         1.67453
C         19.64421        56.59860         1.57213
C         20.95559        58.69354         1.42700
C         23.87695         5.03617         6.31758
C         22.65943         5.51039         5.85704
C         23.81001         7.13802         4.37103
C         22.61243         6.59278         4.93730
C         23.63779         8.19084         3.39288
C         22.37827         8.80439         3.19723
C         23.51534        10.58334         1.68990
C         22.24330         9.93172         2.24201
C         23.53159        11.93422         0.96685
C         22.18594        12.67360         1.03028
C         23.42068        14.82652         0.71297
C         22.18698        14.14230         0.88864
C         23.36038        16.18713         0.30112
C         22.14051        16.84437         0.07602
C         23.35532        18.99662        -0.41472
C         22.11883        18.16610        -0.65795
C         23.29943        20.44749        -0.74254
C         21.99175        21.12708        -0.89115
C         23.10887        23.44607        -0.77861
C         21.94948        22.50395        -1.09636
C         23.15959        24.62357        -1.73919
C         21.94121        25.00854        -2.33042
C         23.04977        26.84582        -3.40467
C         21.99291        25.90501        -3.42201
C         22.94722        29.15399        -3.11401
C         21.70689        29.73384        -2.63928
C         23.03035        31.81135        -2.31074
C         21.75968        31.14735        -2.34589
C         23.13544        33.32228        -2.45551
C         21.81959        34.08400        -2.26042
C         23.05980        36.10363        -1.44164
C         21.87284        35.48354        -1.75604
C         23.09546        37.47306        -0.94849
C         21.90560        38.19730        -0.75757
C         23.14967        40.23630        -0.26100
C         21.91074        39.55523        -0.38613
C         23.16666        41.65362        -0.08425
C         21.94239        42.37631        -0.04209
C         23.19725        44.46414         0.24752
C         21.94906        43.78976         0.10140
C         23.19030        45.88043         0.45720
C         21.99544        46.61553         0.23641
C         23.11859        48.64535         1.13176
C         22.10368        48.12459         0.12158
C         23.24781        50.14850         1.10159
C         22.02332        50.88261         1.04335
C         23.27215        52.93251         1.58010
C         22.03787        52.24835         1.36398
C         23.30774        54.33204         1.84353
C         22.04404        55.06291         2.05389
C         23.39562        57.22938         1.82810
C         22.08812        56.58951         2.04130
C         23.43439        58.62172         1.59403
C         22.20943        59.36510         1.42783
C         23.53658        61.40479         1.16652
C         22.29469        60.75855         1.21004
C         25.05465         5.67130         5.91647
C         26.33011         7.39369         4.82106
C         25.07183         6.70849         4.95506
C         26.63496         8.21388         3.72963
C         24.75284         8.73204         2.66093
C         26.03462        10.78716         2.05244
C         24.81071        10.02273         2.13690
C         25.95212        12.14546         1.69227
C         24.72921        12.79048         1.31724
C         25.93632        14.90724         0.92736
C         24.68664        14.15040         0.98269
C         25.90720        16.26511         0.34482
C         24.61111        16.91454        -0.00253
C         25.76669        19.16295         0.30241
C         24.53470        18.39574        -0.12917
C         25.80332        20.63397        -0.11460
C         24.53128        21.27676        -0.58337
C         25.74003        23.43527        -1.15350
C         24.47959        22.77994        -0.63397
C         25.67063        24.72124        -1.87630
C         24.36268        25.31645        -2.06716
C         25.44805        27.40617        -3.02542
C         24.24122        26.57409        -2.73524
C         25.51996        28.96388        -2.91582
C         24.17367        29.67597        -2.72702
C         25.48064        31.66320        -1.87300
C         24.20927        31.05306        -2.29040
C         25.60687        33.18746        -1.92598
C         24.26966        33.89405        -1.59556
C         25.55951        35.98249        -0.93224
C         24.39245        35.43746        -1.75575
C         25.52586        37.29059        -0.49654
C         24.32676        38.09591        -0.60277
C         25.60174        40.17729        -0.06653
C         24.35785        39.48243        -0.29718
C         25.63367        41.57046        -0.00485
C         24.41889        42.34694        -0.00805
C         25.69703        44.57097         0.13930
C         24.42084        43.74479         0.16218
C         25.59411        45.65040         1.22629
C         24.41000        46.54017         0.87894
C         25.61002        48.57523         1.63378
C         24.42427        47.88948         1.08255
C         25.75815        50.02904         1.24761
C         24.45647        50.79183         1.34159
C         25.74158        52.88364         1.68315
C         24.49763        52.20504         1.51493
C         25.76785        54.28341         1.81615
C         24.53948        55.02114         1.88647
C         25.85193        57.13406         1.81397
C         24.58272        56.46535         1.88817
C         25.88774        58.53015         1.66512
C         24.69997        59.28735         1.52318
C         24.72280        60.69525         1.31757
C         27.50687         9.28853         3.59854
C         28.49861        10.95560         2.17255
C         27.35630        10.29877         2.56458
C         28.40016        12.17486         1.29415
C         27.21328        12.97716         1.84327
C         28.43890        15.14146         1.28765
C         27.14251        14.35233         1.24300
C         28.40842        16.42986         0.51085
C         27.14220        17.08331         0.36659
C         28.25917        19.05168        -0.51553
C         27.06207        18.41740         0.04926
C         28.22174        20.47596        -0.95383
C         27.04077        21.31311        -0.61388
C         28.11119        23.17230        -1.84962
C         26.96910        22.63148        -1.27550
C         28.03875        24.46277        -2.50305
C         26.80934        25.24202        -2.49432
C         27.94628        27.51858        -2.67886
C         26.74771        26.67716        -2.97805
C         27.86835        28.76861        -1.96513
C         26.47718        29.35814        -1.73018
C         27.74564        31.45875        -0.87626
C         26.54368        30.87188        -1.54335
C         27.85402        32.94145        -0.69314
C         26.71526        33.79691        -1.09684
C         27.95571        35.69561        -0.15224
C         26.73753        35.13228        -0.75092
C         27.93940        37.11301         0.28156
C         26.69943        37.92842         0.14714
C         27.97894        40.03098         0.56545
C         26.80945        39.41351         0.15571
C         28.11341        41.47545         0.57520
C         26.94495        42.24538         0.08505
C         28.17601        44.36921         0.79209
C         26.97730        43.75266         0.21774
C         28.10841        45.72327         1.24939
C         26.90055        46.38725         1.43476
C         28.14463        48.50407         2.19199
C         26.86080        47.78894         1.87374
C         28.19078        50.02795         2.32573
C         26.93702        50.74179         1.85506
C         28.24724        52.82238         1.84545
C         26.97020        52.11722         1.80536
C         28.25886        54.19797         1.84977
C         27.03932        54.97456         1.87862
C         27.05989        56.36194         1.87179
C         29.67847        12.96836         1.19232
C         30.89250        15.04174         0.67919
C         29.68800        14.32439         1.00260
C         30.88077        16.39276         0.31227
C         29.60118        17.07912         0.19160
C         30.74091        19.09080        -0.68510
C         29.57006        18.40532        -0.34988
C         30.70154        20.45326        -1.17224
C         29.48109        21.16264        -1.27101
C         30.59726        23.08470        -2.24401
C         29.39410        22.46721        -1.79682
C         30.52569        24.40671        -2.80167
C         29.23621        24.89353        -3.10823
C         30.40615        27.32840        -2.33192
C         29.16956        27.01635        -3.03086
C         30.33407        28.64902        -1.60090
C         29.04379        29.38716        -1.58766
C         30.30073        31.30577        -0.38472
C         29.01549        30.64944        -0.81562
C         30.31249        32.74969        -0.11704
C         29.21747        33.61611        -0.63609
C         30.33554        35.63144         0.55668
C         29.12870        34.99264         0.00366
C         30.40410        36.99981         0.65383
C         29.25579        37.85001         0.17308
C         30.42302        39.87378         1.32314
C         29.16727        39.19626         0.88262
C         30.40798        41.37155         1.64326
C         29.28252        42.12960         0.93268
C         30.59324        44.23046         1.21210
C         29.37281        43.58986         0.94214
C         30.67761        45.69187         1.22408
C         29.39039        46.45461         1.37043
C         30.74635        48.57091         2.13121
C         29.43610        47.76444         2.08801
C         30.55275        49.77984         1.17258
C         29.41855        50.66160         1.67454
C         29.44193        52.01576         1.59118
C         32.06093        17.10561        -0.05487
C         33.21137        19.13494        -0.88517
C         32.02232        18.42506        -0.53352
C         33.18436        20.43788        -1.39450
C         31.90482        21.10958        -1.55462
C         33.05949        23.03720        -2.61228
C         31.83346        22.39927        -2.11502
C         33.00040        24.54319        -2.92523
C         31.70602        25.24921        -2.84591
C         32.91261        27.34006        -2.27001
C         31.69384        26.63041        -2.61097
C         32.89070        28.59109        -1.64284
C         31.63666        29.36906        -1.45725
C         32.85683        31.25658        -0.06956
C         31.62724        30.71359        -0.80582
C         32.85103        32.79311        -0.18833
C         31.55575        33.36678         0.38802
C         32.88121        35.45388         1.24719
C         31.53814        34.78786         0.86891
C         32.94475        36.93838         0.93803
C         31.68947        37.72449         0.80564
C         32.89397        39.86836         1.17361
C         31.71311        39.18366         1.08853
C         32.92007        41.32314         1.31843
C         31.76173        42.03444         1.47540
C         33.09684        44.19596         1.42736
C         31.79268        43.50972         1.78140
C         33.14747        45.58245         1.46306
C         31.95035        46.37584         1.58771
C         31.96559        47.71945         1.85191
C         34.38375        21.15223        -1.71515
C         35.53696        23.20260        -2.50877
C         34.36241        22.43704        -2.25696
C         35.49447        24.58721        -2.72194
C         34.24104        25.29648        -2.73380
C         35.41871        27.41064        -2.34938
C         34.18922        26.65990        -2.45207
C         35.38893        28.73041        -1.91297
C         34.15906        29.24746        -1.27726
C         35.33842        31.47801        -0.68891
C         34.16169        30.61988        -0.56758
C         35.38322        32.81015        -0.17436
C         34.12936        33.46830         0.25761
C         35.40814        35.57731         0.62405
C         34.12587        34.74885         0.71791
C         35.47701        36.86113         1.47578
C         34.16706        37.64904         1.44580
C         35.45258        39.85012         1.18855
C         34.17019        39.13691         1.38627
C         35.41712        41.25486         1.12060
C         34.22047        42.00304         1.24330
C         34.25862        43.40630         1.24843
C         36.69763        25.37752        -2.78973
C         37.93917        27.55054        -2.81520
C         36.66859        26.74282        -2.65783
C         37.93960        28.84384        -2.02774
C         36.62333        29.53029        -1.86026
C         37.86146        31.44435        -0.70732
C         36.57877        30.88531        -1.23088
C         37.88369        32.94950        -0.58963
C         36.59547        33.48900        -0.03060
C         37.91417        35.56522         0.55612
C         36.67022        34.72165         0.84835
C         37.82660        37.00132         0.64086
C         36.67320        37.68339         1.00336
C         36.62627        39.10454         0.99641
C         39.10198        29.43188        -1.66412
C         40.37154        31.58132        -0.96217
C         39.14862        30.73417        -0.95266
C         40.36598        32.84263        -0.49232
C         39.13911        33.44387         0.17306
C         39.08382        34.94876         0.20859
O         18.88970        48.93279        -1.33672
O         25.88287         7.93776         2.56959
O         18.70316        16.23195         2.40234
O         26.08897        26.92520        -4.27235
O         25.39697        16.25746        -1.05924
O         25.30016        23.50738         0.30363
O         21.23186        11.99791         0.14889
O         19.99403        27.77762        -4.25709
O         20.33949        37.37087        -2.44262
O         11.15986        29.21708        -2.66832
O         13.86301        24.71497        -2.25856
O         25.89734        48.13140         2.99503
O         27.25137        43.10182        -1.08066
O         30.07970        46.43575         0.07329
O         27.46422        32.08679         0.43011
O         14.98718        27.05403         0.28649
O         38.45785        30.67939         0.37762
O         26.64053        21.37553         0.81671
O         29.52342        30.46305         0.55645
O         16.40695        42.14639         1.77792
O         31.70469        30.62667        -2.25679
O         12.59441        37.89856        -2.04132
O         31.37100        33.67213         1.82211
O         34.40823        29.38016         0.20545
O         16.31015        39.55055         1.56336
O         22.00548        55.85134         3.30012
O         27.93250        19.43186        -1.94845
O         28.73360        47.79310         3.35357
O         32.56003        37.36310        -0.39498
O         16.38020        16.08605        -0.32578
O         19.92500        52.21996         2.62234
O         24.18192        20.74588        -1.91223
O         22.23133        17.81730        -2.14313
O         34.01747        38.39662         2.68854
O         22.84785        28.08024        -4.02973
O         36.55951        30.77216        -2.71722
O         29.19600        25.99658        -3.98109
O         29.57087        39.12622         2.28495
O         33.02232        23.53469        -3.98572
O         12.58072        31.56871        -2.62646
O         15.22882        23.01727         0.61149
O         22.74539         9.60971         0.89709
O         30.22453        27.40086        -0.85387
O         21.02112        33.88301        -3.48496
O         27.11784        37.35834         1.45645
O         23.92316        33.60295        -0.23020
H         24.69714        33.79079         0.34311
O         11.67033        40.33198        -1.91626
H         12.08986        39.72722        -2.57091
O         27.45584        13.15568         3.28495
H         26.65070        13.56300         3.66906
O         30.07325        41.50154         3.06192
H         29.61558        40.66101         3.31579
O         22.56167        48.33152         2.44306
H         23.21764        48.58886         3.12530
O         25.92749        28.75250        -0.53961
H         26.46576        29.03695         0.22968
O         11.99969        26.46078        -3.05973
H         11.11278        26.22927        -3.42019
O         35.42870        36.04024        -0.75414
H         35.76860        35.31061        -1.31648
O         25.27713        44.98073         2.47566
H         25.25536        45.66575         3.17882
O         26.01271        33.46987        -3.29711
H         25.29845        33.13242        -3.89244
O         18.93327        24.76551         0.54449
H         18.26179        24.38337         1.15012
O         22.60266        48.41744        -1.20603
H         21.99214        48.01086        -1.85730
O         31.67947        43.66065         3.23528
H         31.03651        42.97654         3.54770
O         19.10308         8.79061         4.78651
H         18.17747         9.04373         4.59946
O         36.71246        34.20278         2.18793
H         36.57106        34.95509         2.81113
O         18.12510        26.37435        -3.28377
H         18.51958        26.56137        -4.16915
O          9.63598        27.07732        -2.54501
H          9.81132        27.80577        -3.18317
O         25.63245        19.18299         1.76317
H         26.19533        19.92419         2.08836
O         26.11946        29.46694        -4.11582
H         26.28546        28.68905        -4.70486
O         19.36844        20.66717        -2.70894
H         20.24456        20.82444        -3.12161
O         18.49457        34.13831        -3.20279
H         19.15323        34.47138        -3.85392
O         14.07702        20.57649        -1.88818
H         14.08540        19.59667        -1.91804
O         30.19676        49.30403        -0.13182
H         30.42373        48.34697        -0.21998
O         19.49390        51.46289        -0.93664
H         19.39608        50.65388        -1.49935
O         28.33030        50.31284         3.75380
H         27.68632        49.74467         4.23013
O         26.08141        49.93955        -0.18532
H         26.11895        50.85023        -0.54726
O         21.14235        25.74570        -4.45423
H         21.26187        26.47413        -5.10131
O         10.57826        35.78661         1.15876
H         11.27575        36.29237         1.62667
O         23.49529        33.51024        -3.85048
H         22.64863        33.53288        -4.35732
O         28.58805        15.56586         2.68974
H         28.51714        14.73980         3.22978
O         30.94818        49.10623         3.44980
H         30.06676        49.37526         3.81184
O         24.68423        35.78374        -3.12584
H         25.40522        35.17894        -3.43565
O         18.35239        49.81900         2.17136
H         18.67013        50.58747         2.69685
O         38.00316        33.46296        -1.95433
H         37.44479        32.90455        -2.53998
O         19.79466        37.63745         1.19121
H         19.09730        37.97138         1.79512
O         32.99209        35.40776         2.68923
H         32.66498        34.52111         2.97196
O         23.74509        11.62806        -0.43313
H         23.01211        11.02400        -0.69298
O         38.09530        27.88465        -4.21080
H         37.38178        28.51053        -4.45481
O         32.74879        33.09839        -1.61470
H         33.19918        33.95106        -1.79281
O         18.80666        33.27844         0.30631
H         18.24128        32.74404         0.90221
O         18.40218        46.36607         1.56602
H         17.66057        45.94050         2.04563
O         29.57553        33.85741        -2.05454
H         30.54751        33.74014        -2.15772
O         21.15575        16.90508        -2.45359
H         21.63118        16.05413        -2.61783
O         28.04543        11.77433        -0.05857
H         28.75056        11.18713        -0.40045
O         29.46927        38.10858        -1.24325
H         30.42871        38.03950        -1.43783
O         11.22965        39.86057         1.67579
H         10.60341        40.26289         2.31374
O          9.56827        35.65801        -2.34371
H          8.83154        35.18984        -2.78804
O         25.72953        45.27273        -1.12462
H         26.11780        44.65592        -1.78573
O         22.77118        23.97328         0.53403
H         23.61407        24.29368         0.93252
O         39.11697        32.99637         1.54007
H         38.93777        32.02523         1.53480
O         16.94502        46.63467        -1.81350
H         16.15118        47.12490        -2.11637
O         32.70623        30.95607         1.32094
H         33.15215        30.09407         1.49058
O         35.72379        36.51904         2.85539
H         35.23513        37.17906         3.40430
O         19.31645        27.49229        -0.01207
H         19.31013        26.57881         0.37513
O         19.57846        46.45853        -1.90577
H         18.74786        46.84144        -2.27949
H          4.98367        31.24539         0.37757
H          4.93236        33.71253         0.21547
H          7.72360        27.15114         0.76912
H          6.30231        29.13625         0.44025
H          6.11417        35.83023         0.05913
H          7.34061        37.94789         0.17518
H         10.18864        23.00870         1.08522
H          9.05865        25.16578         1.03531
H          8.56407        40.11836         0.24084
H          9.83606        42.31463         0.38643
H         12.72037        18.77847         1.52689
H         11.53220        20.86834         1.39470
H         11.08795        44.46486         0.30067
H         12.33492        46.58684         0.31205
H         15.15273        14.54541         2.28096
H         13.88296        16.73578         1.80960
H         13.59432        48.72180         0.32097
H         14.85797        50.87067         0.36552
H         17.79851        10.60998         3.53309
H         16.47941        12.54358         2.91352
H         16.12369        53.00765         0.63759
H         17.43797        55.11541         1.15225
H         20.44480         6.73068         5.09422
H         19.35759         8.20629         2.80137
H         18.72138        57.15618         1.35162
H         20.04432        59.27089         1.20925
H         23.91705         4.20883         7.03924
H         21.71586         5.08575         6.22784
H         23.57169        62.49128         1.00364
H         21.37085        61.33946         1.07626
H         26.01113         5.35674         6.35838
H         27.03976         7.31943         5.65900
H         26.86001        59.04340         1.62065
H         25.68944        61.21714         1.27495
H         28.32167         9.42568         4.32543
H         29.47951        10.61066         2.53380
H         29.21660        54.73880         1.80537
H         28.02414        56.89239         1.87179
H         30.62034        12.40261         1.08935
H         31.83854        14.47988         0.63108
H         31.49953        50.38673         1.11499
H         30.33931        52.53245         1.21504
H         33.03384        16.59815         0.03272
H         34.18166        18.63126        -0.75667
H         34.11950        46.09617         1.40349
H         32.93258        48.20101         2.06582
H         35.35259        20.67516        -1.50213
H         36.51771        22.71645        -2.39349
H         36.36336        41.80240         0.99213
H         35.22663        43.91231         1.10972
H         37.66036        24.86176        -2.92536
H         38.82506        26.92766        -2.53525
H         38.72356        37.58251         0.36989
H         37.55553        39.64902         0.76414
H         40.05780        28.92732        -1.87689
H         41.28612        31.15055        -1.39831
H         41.29466        33.43412        -0.51532
H         39.98764        35.54353        -0.00117
