         276
 CSIRO Nanostructure Databank - Neutral Graphene Oxide Data Set
C        -10.79429         0.18302        -1.46944
C         -9.81778         1.08085        -0.73886
C         -8.42825         0.35147        -0.81680
C         -7.17570         1.18512        -0.43366
C         -5.89184         0.46298        -0.06305
C         -4.77613         1.25299         0.53415
C         -3.88047         0.72256         1.66314
C         -2.44061         1.34858         1.56961
C         -1.34798         0.82899         2.51756
C          0.03616         1.57162         2.30993
C          1.34848         0.81670         2.33988
C          2.62990         1.54086         2.02178
C          3.86185         0.74454         1.94711
C          5.23557         1.38636         2.21136
C          6.30424         0.80557         1.28512
C          7.79540         1.15858         1.41321
C          8.50265         1.17791         0.00899
C          9.95898         1.65266         0.09998
C         10.73936         1.26841        -1.14002
C         -9.62551         2.45815        -1.31771
C         -8.52236         3.19763        -0.98472
C         -7.54446         2.63813         0.04235
C         -6.52625         3.75921         0.43591
C         -4.47843         2.50035         0.02368
C         -3.65663         3.42704         0.87057
C         -2.31873         2.71357         0.99065
C         -1.08632         3.51649         0.97915
C          0.11769         2.89719         1.59615
C          1.43525         3.41955         1.02631
C          2.66680         2.87283         1.72218
C          3.98298         3.54908         1.34169
C          5.15995         2.97916         2.18820
C          6.47629         3.65078         1.73032
C          7.83923         3.09931         1.73085
C          9.03940         3.75141         1.12652
C          9.98020         3.13552         0.39069
C         -8.22743         4.42719        -1.66761
C         -7.10656         5.23467        -1.49015
C         -6.09724         4.84967        -0.50118
C         -4.83117         5.42617        -0.38759
C         -3.59735         4.91427         0.38574
C         -2.29388         5.19202        -0.41140
C         -1.05302         4.64028         0.21408
C          0.29285         5.23666        -0.19656
C          1.28826         4.97654         0.98684
C          2.62087         5.73930         0.98477
C          3.90228         5.11059         1.47725
C          5.20578         5.87873         1.32009
C          6.53575         5.20423         1.68668
C          7.74658         5.84032         1.00346
C          9.08127         5.24810         1.42079
C         -6.96166         6.33823        -2.44110
C         -6.22558         7.46057        -2.18097
C         -4.61054         6.74809        -0.91260
C         -3.43685         7.24640        -1.42432
C         -2.20658         6.41645        -1.28721
C         -0.84732         7.06568        -1.59693
C          0.15897         6.78860        -0.44996
C          1.53863         7.32997        -0.80650
C          2.71086         6.90435         0.00720
C          3.87036         7.82797         0.23333
C          5.20983         7.15620         0.52849
C          6.44441         7.52131        -0.31431
C          7.70557         7.00674         0.33306
C         -5.75069         8.52383        -3.04592
C         -4.51432         9.07767        -2.86206
C         -3.39004         8.53178        -2.10660
C         -2.17124         9.18337        -2.18456
C         -0.92583         8.58012        -1.78631
C          0.21821         9.32222        -1.69998
C          1.56804         8.65447        -1.69562
C          2.73552         9.46465        -1.25402
C          4.05479         8.90478        -1.36669
C          5.29896         9.65156        -0.98791
C          6.40878         9.01818        -0.56874
C        -10.78361        -1.13774        -1.19007
C         -9.74890        -1.74353        -0.35524
C         -8.55759        -0.92563        -0.00939
C         -7.31790        -1.60977         0.50626
C         -5.94658        -1.07484         0.08753
C         -4.78449        -1.65268         0.91676
C         -3.68309        -0.79947         1.48591
C         -2.68506        -1.44243         2.44421
C         -1.29074        -0.72234         2.47762
C          0.01862        -1.45497         2.27381
C          1.31874        -0.66832         2.14840
C          2.42138        -1.19491         1.23208
C          3.76644        -0.55093         1.51858
C          4.99263        -1.26351         1.07357
C          6.13055        -0.39405         0.66774
C          7.09584        -0.90157        -0.34832
C          8.35757        -0.19259        -0.58125
C          9.36379        -0.75260        -1.38173
C         10.50559         0.09115        -1.74935
C         -9.77699        -3.06120        -0.00718
C         -8.65466        -3.71922         0.64421
C         -7.41695        -3.04473         0.80598
C         -6.30374        -3.63066         1.64390
C         -4.90864        -3.07096         1.37740
C         -3.81444        -3.70459         1.89287
C         -2.55647        -2.96046         2.20250
C         -1.23747        -3.65564         1.97172
C         -0.00134        -2.85104         1.74122
C          1.07851        -3.36937         1.08928
C          2.42119        -2.71479         1.19255
C          3.65784        -3.45756         0.79072
C          4.97508        -2.70858         0.68519
C          6.07254        -3.26801        -0.18696
C          6.98746        -2.30601        -0.88215
C          8.13494        -2.90006        -1.62892
C          9.26077        -2.06806        -1.88577
C         -8.79403        -5.07227         0.97660
C         -7.68943        -5.87031         1.51635
C         -6.38618        -5.15897         1.80150
C         -5.09138        -5.98278         1.83114
C         -3.79857        -5.18565         2.04710
C         -2.52482        -5.90241         1.65638
C         -1.24878        -5.09590         1.51013
C         -0.15290        -5.55763         0.61837
C          0.97739        -4.62938         0.30644
C          2.18368        -5.28147        -0.29954
C          3.54352        -4.79600         0.10732
C          4.72681        -5.42701        -0.54996
C          5.99261        -4.64562        -0.75053
C          6.70216        -4.92041        -2.07377
C          8.02106        -4.18324        -2.13388
C         -7.75273        -7.34888         1.26520
C         -6.90068        -7.88349         0.36157
C         -4.92499        -6.86713         0.60344
C         -3.92041        -7.76756         0.54568
C         -2.54919        -7.35391         1.09390
C         -1.62226        -7.52247        -0.12760
C         -0.42118        -6.67696        -0.33658
C          0.72835        -7.24191        -1.17702
C          2.07521        -6.64813        -0.83485
C          3.17013        -7.21292        -1.58509
C          4.52901        -6.54563        -1.53461
C          5.81311        -7.36796        -1.78310
C          6.76021        -6.39080        -2.43554
C         -6.63382        -9.25485        -0.06159
C         -5.40269        -9.70202        -0.39400
C         -4.01825        -9.13282        -0.12477
C         -3.07758        -9.19966        -1.36166
C         -1.68624        -8.79626        -0.92306
C         -0.55808        -9.36642        -1.39015
C          0.79669        -8.77805        -1.04456
C          1.95418        -9.33231        -1.85810
C          3.08724        -8.61179        -2.06543
C          4.28375        -9.14512        -2.72126
C          5.50757        -8.58347        -2.62674
O          4.17459         3.28121        -0.02004
O          6.78461         5.34029         3.06034
O         -0.54834        -1.26394         3.60511
O          6.80885        -4.39619         0.41083
O          7.51832         3.40158         3.00175
O          3.19977        -3.43949         2.18217
O          6.32539        -1.23264        -1.60334
O         -6.02698        -6.95980        -0.26162
O         -3.53303        -1.36569         0.15920
O          5.48369        -2.30935         1.99732
O          1.30503        -4.36469        -1.10294
O         -8.21063         2.39550         1.29679
O         -2.96242        -5.81325         3.04864
O         -2.36489         5.06536        -1.85874
O         -7.28324        -5.49907         2.91007
O          0.09566         2.82290         3.05397
O         -1.67213        -6.38861        -1.07162
O         -1.80510        -3.53978         3.31077
O         -2.08165         1.49167         0.16937
O          1.65893        -0.11030         3.43981
O          3.03161         5.86658         2.37967
O         -3.59593         5.75501         1.49946
O         -8.17113        -0.78872         1.38097
O          2.50826         6.39924        -1.34913
O          0.70347         4.63609        -1.36158
O         -6.16338         0.92177        -1.44993
O         -5.73182         7.59164        -0.87093
O          8.35856         0.69783         2.42608
O          4.35049        -5.81367         0.79658
O         -0.12186        -5.88884         2.03719
O          5.32328         7.20245         1.97264
O          3.70876        -6.24203        -2.64580
O         -0.32330         7.44381         0.71209
H         -0.11747         6.89367         1.51517
O         -0.31218         6.50660        -2.80873
H         -0.02046         5.57137        -2.57875
O         -2.08542        -8.22276         2.13801
H         -2.39290        -7.83562         2.99009
O          6.40533         6.77248        -1.54674
H          5.70068         7.13708        -2.13689
O          1.07591        -9.03347         0.35401
H          1.08062       -10.00134         0.50400
O         -3.51010        -8.30518        -2.38856
H         -3.06030        -7.44115        -2.26252
O          6.27617        -7.83145        -0.50100
H          6.52229        -7.06152         0.05491
O         -6.61148        -3.05047         2.94988
H         -7.24093        -3.66715         3.39606
O         -3.47858       -10.10939         0.81187
H         -2.93091        -9.63643         1.48923
O         -6.37422         3.95259         1.63611
H         -7.63854         2.81242         1.99818
O          4.88246         3.42992         3.50319
H          5.59741         3.11557         4.09955
O         -5.77576        -1.63926        -1.23698
H         -4.84449        -1.46275        -1.50141
O         -3.21684        -1.30557         3.76793
H         -2.61451        -1.80640         4.36393
O         -1.80653         1.16537         3.83539
H         -1.17952         0.76977         4.47955
O         -4.47258         0.93433         2.93707
H         -3.76670         0.91759         3.62449
O          2.03139        -0.81520        -0.12103
H          2.15665         0.15188        -0.23749
O          1.77241         8.18069        -3.04972
H          1.05376         7.50467        -3.22513
O          1.60648         2.93939        -0.30751
H          2.57945         3.10814        -0.54868
O          0.49705        -6.93528        -2.56387
H          0.52321        -5.95822        -2.66343
O         10.17360         5.86304         0.76188
H         10.00998         5.84171        -0.20339
O         10.59327         0.95384         1.19485
H         11.48611         1.33164         1.32939
O         -4.14835         3.45245         2.21395
H         -4.13027         4.41839         2.47158
O          3.55482         8.73712         1.22461
H          4.22420         8.64702         1.94858
O          5.61978         1.05283         3.55681
H          5.80632         0.09095         3.60213
O         -8.31091        -0.02827        -2.20048
H         -7.35991        -0.22927        -2.37032
O          4.28500         8.06475        -2.43037
H          3.41192         7.77809        -2.82350
O         -5.19814        -6.93307         2.91085
H         -5.99514        -6.68648         3.44017
O          0.59130         5.40970         2.16272
H          1.25062         5.48291         2.89485
O          7.77698         2.11207        -0.82360
H          6.95855         1.68696        -1.15896
O          5.82530        -4.28093        -3.06338
H          6.20736        -4.42110        -3.95527
O         -4.65827         2.91017        -1.25067
H         -5.08857         2.18779        -1.77437
O        -10.35271         1.12264         0.59100
H         -9.73912         1.63773         1.17046
H         11.14547        -0.25057        -2.57689
H         11.59275         1.89448        -1.44379
H         10.82974         3.73226         0.01873
H          9.21687         5.38824         2.52381
H          8.65138         7.48215         0.02464
H          7.30970         9.60712        -0.33591
H          5.29180        10.74814        -1.08946
H          2.56515        10.19628        -0.44851
H          0.17581        10.40967        -1.86218
H         -2.12638        10.18843        -2.63236
H         -4.25246         9.93982        -3.49755
H         -6.40180         8.91328        -3.84370
H         -7.46901         6.23285        -3.41149
H         -8.94835         4.72869        -2.44425
H        -10.32877         2.83965        -2.07594
H        -11.56699         0.61792        -2.12116
H        -11.54092        -1.81031        -1.62145
H        -10.64910        -3.68122        -0.26258
H         -9.73843        -5.58374         0.73947
H         -8.48858        -7.95208         1.81373
H         -7.49129        -9.93972        -0.16216
H         -5.34160       -10.74895        -0.73665
H         -3.07794       -10.24075        -1.77419
H         -0.61421       -10.25431        -2.03991
H          1.91018       -10.38558        -2.17921
H          4.16176       -10.07377        -3.30029
H          6.35784        -9.06492        -3.13301
H          6.87174        -6.53670        -3.52765
H          8.85214        -4.61471        -2.71244
H         10.07534        -2.46205        -2.51165
