         240
 CSIRO Nanostructure Databank - Neutral Graphene Oxide Data Set
C        -11.14357         0.72580         0.61532
C         -9.96062         1.52887         0.39903
C         -8.67431         0.80152         0.29171
C         -7.56050         1.50905        -0.40050
C         -6.30736         0.73117        -0.68701
C         -5.05296         1.50027        -0.77889
C         -3.82093         0.73926        -0.92875
C         -2.57160         1.48471        -0.78271
C         -1.36303         0.67859        -0.46086
C         -0.09207         1.36020        -0.04856
C          1.20219         0.66565        -0.29194
C          2.41586         1.35495        -0.25813
C          3.73484         0.64308        -0.16155
C          4.94146         1.42093        -0.64964
C          6.16472         0.65808        -1.00566
C          7.48815         1.38268        -1.00589
C          8.73206         0.67766        -0.50535
C         10.07135         1.45511        -0.47647
C         11.21703         0.58090        -0.02329
C         -9.93357         2.89998         0.34968
C         -8.70800         3.65971         0.10778
C         -7.49596         2.96674        -0.26259
C         -6.28216         3.64456        -0.53003
C         -5.06540         2.88304        -0.77855
C         -3.79581         3.62860        -1.15784
C         -2.56939         2.85248        -0.71982
C         -1.38197         3.60218        -0.25964
C         -0.12538         2.84989         0.09543
C          1.19922         3.55801         0.10743
C          2.47913         2.80551        -0.01868
C          3.75301         3.54287        -0.25347
C          4.97906         2.79324        -0.44937
C          6.23040         3.54069        -0.52658
C          7.37318         2.85264        -0.88683
C          9.13931         3.73847         0.06856
C          9.94574         2.68300         0.43908
C         -8.69908         5.03644         0.15536
C         -7.52097         5.84169        -0.31238
C         -6.23311         5.05983        -0.42813
C         -4.99190         5.77967        -0.49511
C         -3.77052         5.08913        -0.75113
C         -2.50847         5.76548        -0.67907
C         -1.32492         5.06092        -0.48696
C         -0.06564         5.78436        -0.04318
C          1.19746         4.98514        -0.32059
C          2.51975         5.69097        -0.37257
C          3.78198         4.92175        -0.20395
C          5.03404         5.64680        -0.04146
C          6.27715         4.94573        -0.13590
C          7.47275         5.59126         0.36602
C          8.69659         4.92025         0.71371
C         -7.35188         7.12207         0.45096
C         -6.13787         7.77696         0.46685
C         -4.97965         7.16104        -0.11973
C         -3.77509         7.97396        -0.29935
C         -2.46657         7.25093        -0.65670
C         -1.21233         7.94838        -0.34378
C          0.04690         7.18654        -0.66247
C          1.32123         7.85522        -0.17799
C          2.48362         7.14048        -0.08493
C          3.67524         7.69514         0.65160
C          4.98483         7.00824         0.32868
C          6.18732         7.69033         0.64512
C          7.38220         6.96531         0.71951
C         -6.00803         9.11077         1.03662
C         -4.84551         9.81621         0.99020
C         -3.65279         9.28164         0.37102
C         -2.43132         9.91715         0.45102
C         -1.19452         9.26573         0.08263
C          0.07949         9.92897         0.30101
C          1.28563         9.26501         0.19972
C          2.55623         9.91502         0.46379
C          3.72368         9.20534         0.59213
C          4.99669         9.83821         0.84795
C          6.15051         9.11675         0.92102
C        -11.11333        -0.64202         0.66331
C         -9.90338        -1.42579         0.52485
C         -8.62776        -0.68698         0.37865
C         -7.41051        -1.40820        -0.07387
C         -6.28490        -0.73269        -0.42579
C         -4.97271        -1.47002        -0.47548
C         -3.82991        -0.64246        -1.00822
C         -2.59558        -1.37963        -1.33486
C         -1.27868        -0.68777        -1.05936
C         -0.05672        -1.47816        -0.75255
C          1.13972        -0.74540        -0.47087
C          2.39183        -1.49694        -0.63937
C          3.69385        -0.77790        -0.66425
C          4.94051        -1.51779        -0.44400
C          6.23385        -0.86286        -0.83263
C          7.35095        -1.29872         0.10216
C          8.63886        -0.56423         0.05210
C          9.74745        -1.21586         0.87851
C         11.08846        -0.61896         0.54770
C         -9.87232        -2.79455         0.61585
C         -8.61486        -3.53539         0.56964
C         -7.51444        -2.89181        -0.23098
C         -6.37107        -3.61348        -0.92588
C         -5.05339        -2.90282        -0.98395
C         -3.89611        -3.60304        -1.14422
C         -2.61524        -2.87872        -1.37122
C         -1.30529        -3.60164        -1.16220
C         -0.06663        -2.86837        -0.83149
C          1.05249        -3.68321        -0.18483
C          2.37755        -2.91770        -0.18104
C          3.67898        -3.62624        -0.07404
C          4.95905        -2.88812        -0.23568
C          6.17528        -3.55787         0.00363
C          7.33971        -2.78367         0.43173
C          8.62329        -3.48818         0.66166
C          9.75399        -2.73781         0.79953
C         -8.48919        -4.68302         1.30366
C         -7.22983        -5.42252         1.49205
C         -6.30469        -5.10298        -0.93247
C         -5.12122        -5.76640        -0.72310
C         -3.88382        -5.12093        -1.31771
C         -2.61904        -5.81490        -0.81117
C         -1.35863        -5.02858        -0.72839
C         -0.10095        -5.85725        -0.93940
C          1.22706        -5.11596        -0.72560
C          2.52753        -5.86225        -0.49045
C          3.73641        -5.10155        -0.04331
C          4.92463        -5.70672         0.19390
C          6.24103        -5.03606        -0.16416
C          7.47280        -5.69436         0.40764
C          8.58987        -4.94945         0.69325
C         -7.14112        -6.77033         1.28712
C         -5.82390        -7.49388         1.11843
C         -5.06378        -7.17569        -0.20949
C         -3.81449        -7.99853        -0.36609
C         -2.55229        -7.37486        -1.00008
C         -1.30554        -7.92133        -0.29006
C         -0.27064        -7.05331        -0.04715
C          1.65483        -8.35200        -0.86306
C          2.65336        -7.35060        -0.31865
C          3.70185        -7.88154         0.35726
C          4.96338        -7.11286         0.75171
C          6.24234        -7.84291         0.36348
C          7.42894        -7.14959         0.37159
C         -5.96742        -8.99396         1.26693
C         -4.91201        -9.79029         1.00019
C         -3.67385        -9.23415         0.46397
C         -2.48333        -9.89239         0.61155
C         -1.22932        -9.28593         0.21527
C         -0.02863        -9.97900         0.32592
C          1.32471        -9.48580         0.07406
C          2.41385       -10.04171         0.68201
C          3.74232        -9.32518         0.83709
C          4.99196        -9.97501         0.25895
C          6.14998        -9.27829         0.14508
O         -0.17395         5.94960         1.39142
H         -0.36440         5.05651         1.77312
O         -3.26674         7.91455        -1.67929
O         10.40130         1.85956        -1.81409
H          9.75203         2.54441        -2.09767
O          1.32248        -8.35474        -2.03900
O         -4.99475        -8.18894        -1.25260
O          3.43700         7.35782         2.06820
H          2.57966         7.75962         2.32651
O          0.06594         7.02510        -2.09829
H          0.01668         7.91266        -2.50909
O          1.81559         5.24065        -1.60129
O         -7.49237        -5.73244        -1.12269
H         -7.32916        -6.69164        -1.23362
O          4.95316        -6.96938         2.15305
O          6.97193        -1.72871         1.43191
O         -7.87367         6.25018        -1.70785
H         -8.04568         5.42546        -2.21178
O          3.96561         0.45419         1.28133
H          3.71398         1.28220         1.74570
O         -0.94090         0.68634         0.93956
O         -4.60387        -1.66183         0.95044
H         -4.51703        -0.77759         1.36829
O         -3.75419         3.64074        -2.62629
H         -4.53577         4.13921        -2.94615
O          0.52838        -7.12672         1.05183
H          0.24153        -7.87254         1.62033
O         -2.12632        -5.32470         0.47427
O          6.56353        -1.46736        -2.11473
H          6.78054        -0.72717        -2.73541
O          0.61163        -3.85191         1.18414
H          1.40096        -3.71495         1.76377
O          1.93391         3.24168         1.33042
O          3.00618        -3.05551         1.13884
O         -4.89115        -7.04431         2.13563
H         -5.37144        -6.98231         2.98609
O          9.45683        -0.86722         2.26481
H          8.55068        -1.21068         2.45622
O          2.15316        -5.31926        -1.82008
O          6.34502        -5.29032        -1.61420
H          5.61599        -4.81461        -2.06803
O         -0.20031        -6.22448        -2.32147
H          0.50110        -6.88712        -2.53839
O          3.92089        -9.31463         2.27448
H          4.40593        -8.46574         2.51948
O         -3.93757        -5.36194        -2.75811
H         -3.16529        -4.89040        -3.15363
O         -2.52151        -7.68320        -2.39001
H         -3.35865        -7.34742        -2.78511
O         -6.13201        -4.68624         1.82993
H         -6.37119        -3.74988         1.97441
O         -7.50843        -3.11729        -1.69904
O         -1.80023        -0.77008        -2.40741
O         -1.86496        -3.41515        -2.51247
O         -1.00228         3.30158         1.17111
O          6.82523         1.00394        -2.28244
O         -7.27712         1.04615        -1.76671
O          8.50983         3.58739        -1.20906
O         -8.29408         0.16139         1.56053
O          3.04394        -1.14400        -1.92702
H         11.98402        -1.19003         0.83771
H         12.22018         0.98304        -0.23158
H         10.45068         2.68407         1.41518
H          9.31987         5.37508         1.49830
H          8.29246         7.47685         1.06677
H          7.10264         9.62276         1.13841
H          5.01845        10.93004         0.98453
H          2.57065        11.01265         0.55344
H          0.06779        10.98583         0.60674
H         -2.37281        10.90708         0.92858
H         -4.78983        10.81693         1.44353
H         -6.89797         9.55040         1.50994
H         -8.24228         7.60005         0.88613
H         -9.62581         5.58210         0.38949
H        -10.86561         3.47071         0.48110
H        -12.10538         1.24680         0.73400
H        -12.05406        -1.19141         0.81927
H        -10.79632        -3.34935         0.84277
H         -9.39877        -5.09723         1.76942
H         -8.05971        -7.30115         0.99806
H         -6.89500        -9.41165         1.68717
H         -4.95130       -10.86989         1.21409
H         -2.46043       -10.86585         1.12592
H         -0.07894       -10.98772         0.76951
H          2.26805       -10.89915         1.35952
H          4.98498       -11.05841         0.06519
H          7.06616        -9.80140        -0.17470
H          8.38407        -7.69654         0.30589
H          9.51525        -5.46256         0.99764
H         10.71612        -3.24336         0.97690
