         410
 CSIRO Nanostructure Databank - Neutral Graphene Oxide Data Set
C         28.21147        27.71288         2.59437
C         28.14735        29.09152         2.23084
C         26.98317        29.87426         2.44191
C         27.99118        31.85433         1.42513
C         26.93265        31.22737         2.09616
C         27.96044        33.24830         1.00545
C         26.73996        33.97910         0.95913
C         27.91395        36.06005         0.44116
C         26.72739        35.34044         0.69519
C         27.92310        37.50535         0.27975
C         26.77435        38.28152         0.60152
C         27.99655        40.35521         0.19253
C         26.81493        39.65477         0.56121
C         28.05881        41.79036         0.23115
C         26.93098        42.56741         0.64159
C         28.19628        44.62418         0.39449
C         26.99386        43.93461         0.72524
C         28.27563        46.03580         0.47049
C         30.56289        27.61521         1.92580
C         29.36631        26.99435         2.39734
C         30.53346        29.00061         1.58654
C         29.29870        29.69088         1.65080
C         30.51379        31.78817         0.83849
C         29.17927        31.05228         1.13450
C         30.45998        33.26782         0.88140
C         29.15407        33.93046         0.69154
C         30.34687        35.99681         0.03890
C         29.15464        35.33410         0.39525
C         30.27497        37.36190        -0.47217
C         29.08762        38.17473        -0.14739
C         30.33517        40.29014        -0.61608
C         29.14516        39.60244        -0.20158
C         30.41486        41.69361        -0.54773
C         29.26958        42.45260        -0.11332
C         30.52928        44.57592        -0.38853
C         29.33369        43.87954        -0.02779
C         30.58579        46.00052        -0.31775
C         29.43961        46.70037         0.12760
C         33.01286        24.77695         1.73111
C         31.83344        25.46877         1.88748
C         33.02472        27.59424         1.62532
C         31.79407        26.88604         1.80784
C         33.00064        29.00927         1.45063
C         31.77585        29.69970         1.30572
C         32.99858        31.83073         0.81115
C         31.78362        31.10352         1.04343
C         32.99438        33.21974         0.46975
C         31.73937        33.99164         0.58453
C         32.87822        36.06767        -0.25869
C         31.61507        35.23809        -0.25511
C         32.85087        37.36650        -0.67527
C         31.53410        38.02287        -0.94887
C         32.79750        40.21771        -1.34284
C         31.49253        39.51514        -1.13204
C         32.83785        41.68730        -1.21551
C         31.63524        42.40759        -0.89875
C         32.80470        44.55681        -1.37156
C         31.64629        43.81773        -0.85018
C         32.92430        46.00046        -1.09917
C         31.82202        46.70908        -0.64852
C         33.00161        48.85275        -0.95381
C         31.88010        48.15910        -0.63400
C         35.46024        23.28941         1.13341
C         35.48632        24.69999         1.30701
C         34.25721        25.45315         1.57590
C         35.54711        27.57846         1.65246
C         34.25628        26.86041         1.59856
C         35.57682        29.07072         1.49299
C         34.25779        29.78988         1.41566
C         35.44948        31.81619         0.54085
C         34.24604        31.16139         0.87668
C         35.42271        33.20500         0.17699
C         34.17950        33.90515         0.19204
C         35.39253        36.04182        -0.45886
C         34.17450        35.42525         0.19040
C         35.34994        37.39864        -0.84827
C         34.09254        38.11184        -0.89057
C         35.28228        40.16484        -1.55109
C         34.07164        39.46286        -1.23286
C         35.22410        41.55310        -1.84111
C         34.04970        42.31460        -1.54532
C         35.33657        44.48643        -1.91418
C         34.04522        43.77936        -1.72125
C         35.38506        45.97147        -1.95013
C         34.23448        46.66269        -1.26285
C         35.50485        48.89871        -1.60570
C         34.29050        48.17384        -1.13403
C         35.48748        50.28077        -1.82605
C         37.84546        23.22786         0.61333
C         36.59701        22.58100         0.80425
C         37.89345        24.64415         0.76150
C         36.71537        25.36056         1.11615
C         38.02557        27.54140         0.96979
C         36.81088        26.80784         1.38798
C         37.98886        28.98186         0.79721
C         36.77146        29.72545         0.91654
C         37.88688        31.76664         0.09033
C         36.70878        31.08995         0.54179
C         37.86288        33.16271        -0.24887
C         36.63362        33.89527        -0.17065
C         37.82181        35.96542        -0.84265
C         36.60508        35.29553        -0.49477
C         37.80794        37.36056        -1.15781
C         36.55655        38.08802        -1.22941
C         37.76435        40.14605        -2.01796
C         36.52058        39.45127        -1.59560
C         37.80903        41.64507        -2.27980
C         36.40293        42.26231        -2.39064
C         38.18967        44.74648        -2.33465
C         36.29381        43.71748        -2.50136
C         38.03010        46.05962        -1.91025
C         36.71602        46.74246        -1.99548
C         37.97770        48.87860        -1.67201
C         36.73250        48.18964        -1.65886
C         37.89009        50.24731        -2.03358
C         36.67765        50.93206        -2.14649
C         40.20207        20.37548        -0.08910
C         39.04466        21.07747         0.15470
C         40.28672        23.19235         0.19902
C         39.05310        22.49431         0.31689
C         40.32487        24.62203         0.32880
C         39.13932        25.34591         0.60000
C         40.46254        27.46556         0.61394
C         39.16767        26.78590         0.71388
C         40.44997        28.98704         0.44476
C         39.15481        29.67362         0.38898
C         40.31591        31.70903        -0.40183
C         39.11433        31.04538         0.02146
C         40.29769        33.09103        -0.72500
C         39.06771        33.81846        -0.64308
C         40.25224        35.92819        -1.19176
C         39.05265        35.24046        -0.90403
C         40.26191        37.33235        -1.31610
C         39.03229        38.03161        -1.34221
C         40.28461        40.21906        -1.59980
C         39.06027        39.42661        -1.81334
C         40.24443        41.63933        -1.56018
C         39.07656        42.40509        -1.94074
C         40.29639        44.49095        -1.21587
C         39.18467        43.83241        -1.85724
C         40.29986        45.91059        -1.01043
C         39.16631        46.73032        -1.33734
C         40.39912        48.79324        -0.78633
C         39.21160        48.15671        -1.29633
C         40.63174        50.22077        -0.74472
C         39.77744        51.27016        -1.25868
C         40.18741        53.01567         0.49361
C         39.53164        52.50164        -0.67391
C         42.66454        20.33132        -0.40265
C         41.45370        21.04706        -0.18114
C         42.75628        23.13202        -0.13768
C         41.49543        22.46026        -0.04583
C         42.79009        24.55688        -0.05779
C         41.58816        25.30298         0.15013
C         42.85972        27.40125        -0.07903
C         41.65326        26.71024         0.20070
C         42.84289        28.84583        -0.30805
C         41.61960        29.61466        -0.18221
C         42.70472        31.63616        -1.10993
C         41.52518        30.94769        -0.56676
C         42.74283        33.10986        -1.11404
C         41.53180        33.77467        -1.06145
C         42.77630        35.94194        -1.43015
C         41.48635        35.17847        -1.59391
C         42.75078        37.36387        -1.43498
C         41.50308        38.06092        -1.42388
C         42.71066        40.18407        -1.17021
C         41.48850        39.48848        -1.40736
C         42.66177        41.58176        -0.94648
C         41.44850        42.31498        -1.13292
C         42.57558        44.33760        -0.25879
C         41.44141        43.71389        -0.87015
C         42.53211        45.74408         0.04345
C         41.42668        46.54052        -0.39022
C         42.52875        48.53521         0.52729
C         41.44793        47.96356        -0.22948
C         42.61470        49.94375         0.73942
C         41.77921        50.70371        -0.08634
C         42.31489        52.77481         1.92427
C         41.49665        52.66549         0.74832
C         43.87651        20.98143        -0.45600
C         45.23001        23.09544        -0.29706
C         43.96364        22.39788        -0.31484
C         45.25516        24.48607        -0.20528
C         44.03630        25.23257        -0.14252
C         45.30143        27.31010        -0.55131
C         44.05897        26.65962        -0.21682
C         45.23090        28.70949        -0.98204
C         43.99775        29.46884        -0.74353
C         45.24106        31.66670        -0.97427
C         43.99049        30.87646        -1.17698
C         45.24502        33.12468        -1.22224
C         44.00783        33.80691        -1.28577
C         45.26416        35.92424        -1.47035
C         44.01064        35.23670        -1.39128
C         45.26952        37.41167        -1.75906
C         43.97540        38.09469        -1.38758
C         45.17967        40.18019        -0.83770
C         43.95507        39.47323        -1.14366
C         45.10350        41.53096        -0.43431
C         43.84702        42.23883        -0.48019
C         44.91303        44.16270         0.64446
C         43.75066        43.57250        -0.03718
C         44.82382        45.58576         1.09034
C         43.61646        46.36337         0.72518
C         44.65067        48.34771         1.85186
C         43.59026        47.72902         1.01218
C         44.64932        49.80503         2.09645
C         43.57536        50.58057         1.62963
C         43.34147        51.90130         2.18934
C         47.69741        22.97971        -0.28007
C         46.49496        22.36779        -0.34274
C         47.83003        24.44720        -0.16006
C         46.53785        25.24642         0.08714
C         47.74001        27.33268        -0.83512
C         46.51947        26.64126        -0.52785
C         47.78953        28.72669        -1.01084
C         46.53151        29.45818        -1.17724
C         47.78892        31.66958        -1.09407
C         46.53064        30.92871        -0.93420
C         47.75643        33.08034        -1.21354
C         46.48827        33.80770        -1.30316
C         47.74308        35.99788        -1.78965
C         46.47505        35.22804        -1.44890
C         47.72852        37.42078        -1.22222
C         46.50940        38.10199        -1.21637
C         47.63057        40.17309        -0.48645
C         46.43295        39.47933        -0.84081
C         47.56495        41.54902        -0.10638
C         46.30518        42.22229        -0.03275
C         47.41774        44.26405         0.80590
C         46.23755        43.54588         0.45149
C         47.37753        45.62278         1.28311
C         46.09754        46.40606         1.13661
C         47.16252        48.29378         2.56365
C         45.92895        47.58354         2.07610
C         46.99452        49.72317         2.88687
C         45.81858        50.38757         2.70706
C         50.31976        24.47042        -1.13343
C         49.07900        25.13835        -0.65602
C         50.28841        27.34494        -1.19790
C         48.97314        26.57309        -1.05886
C         50.24271        28.79005        -0.95864
C         49.01309        29.47131        -0.97624
C         50.18638        31.65775        -0.75818
C         48.99372        30.93740        -0.97130
C         50.18563        33.07018        -0.88959
C         48.99673        33.77317        -1.22357
C         50.30514        35.98722        -1.12893
C         49.04502        35.22626        -1.51445
C         50.20618        37.43335        -0.79578
C         48.94258        38.10254        -0.85371
C         50.07958        40.20526        -0.14385
C         48.88340        39.48732        -0.49064
C         50.00954        41.59770         0.12429
C         48.76085        42.26081         0.20913
C         49.86021        44.40699         0.82315
C         48.67440        43.62836         0.65494
C         49.82251        45.77122         1.23897
C         48.54358        46.33180         1.56576
C         49.75663        48.43976         2.25815
C         48.50429        47.65676         2.25140
C         51.47887        25.17258        -1.25052
C         52.73504        27.33225        -0.84691
C         51.55755        26.61023        -1.05582
C         52.67474        28.76132        -0.62616
C         51.47130        29.45909        -0.68800
C         52.60382        31.64063         0.11296
C         51.38844        30.89607        -0.32489
C         52.48837        33.11874         0.05791
C         51.39275        33.81252        -0.54658
C         52.66202        35.91169        -0.19724
C         51.43868        35.20544        -0.59575
C         52.63056        37.40704        -0.08796
C         51.34166        38.11447        -0.31093
C         52.56769        40.16892         0.33017
C         51.31761        39.49671        -0.02010
C         52.56633        41.64949         0.47497
C         51.24331        42.36488         0.42033
C         52.14907        44.72884         0.23241
C         51.09396        43.84545         0.41807
C         52.23960        46.01309         0.82215
C         51.02260        46.55226         1.32463
C         50.93020        47.90212         1.84903
C         55.20272        27.36171        -0.70213
C         54.04897        26.70094        -0.92979
C         55.21861        28.75660        -0.13580
C         53.94696        29.52169        -0.47174
C         55.29040        31.58438         0.27744
C         53.95743        30.98104        -0.09989
C         55.37973        32.76402         0.98287
C         53.45215        33.84717         0.75972
C         54.88591        35.85740         1.05641
C         53.69102        35.20363         0.57285
C         54.85109        37.25374         1.19196
C         53.54842        38.00120         0.96530
C         55.06008        40.12823         0.89583
C         53.69268        39.48521         0.71942
C         55.00766        41.63378         1.10413
C         53.90704        42.31174         0.54251
C         54.99137        44.50001         0.98772
C         54.05085        43.68819         0.33219
C         54.76743        45.94365         1.05030
C         53.56740        46.60490         0.97320
C         56.44017        29.56936        -0.49968
C         56.45902        30.90080        -0.26647
C         56.40879        33.78127         1.07084
C         56.14155        35.12015         1.21427
C         55.88013        38.00118         1.87545
C         55.91505        39.35752         1.86599
C         56.09283        42.40315         1.57493
C         56.04431        43.80230         1.62125
O         51.72534        31.05753         1.12975
O         43.23627        31.11474        -2.40277
O         44.89155        47.50981         3.06840
O         39.02897        50.96574        -2.40973
O         37.12693        41.77868        -3.56953
O         45.84278        31.30011         0.32671
O         35.03351        29.73422         2.68378
O         54.21083        33.12772         1.68093
O         51.83241        41.96059         1.74311
O         37.28602        44.28658        -3.29084
O         40.73448        28.36712         1.74335
O         42.15570        52.02922        -0.33479
O         53.24188        36.83074        -1.25564
O         36.39330        27.13911         2.77089
O         31.21906        33.96046         1.94603
O         38.44531        39.49505        -3.15544
O         49.53283        26.86333        -2.37148
O         34.64579        47.29544         0.00385
O         48.87005        24.89873         0.78851
O         53.19514        44.29804        -0.58936
O         47.88483        47.54119         3.59657
O         54.07777        30.53763        -1.51188
O         30.69291        37.36121        -1.95393
O         45.76941        29.00470        -2.33715
O         50.03422        35.60331        -2.53589
O         35.86738        46.55173        -3.19257
O         44.65720        44.54158         2.07553
O         29.69910        31.23329        -0.23044
O         33.10244        44.20901        -2.78299
O         31.92895        39.84988        -2.49334
O         55.73287        39.96743        -0.40356
H         55.17497        40.39691        -1.08615
O         46.47271        25.47313         1.52862
H         47.40322        25.54661         1.84517
O         55.20272        28.61343         1.32123
H         55.99228        28.09630         1.58417
O         41.33387        35.00360        -3.06227
H         42.13211        34.53250        -3.38598
O         31.47487        34.73450        -1.62892
H         31.23266        35.51983        -2.18298
O         52.79134        37.85286         2.21480
H         53.24291        38.38066         2.90690
O         45.33268        37.54978        -3.21724
H         46.15920        37.08607        -3.51194
O         47.67551        36.15510        -3.24494
H         48.60951        36.24517        -3.55639
O         46.21150        47.03798        -0.18883
H         46.48211        46.35274        -0.83645
O         34.28145        35.79064         1.61972
H         35.04821        35.30522         1.99256
H         27.32245        27.22969         3.02394
H         26.10996        29.40676         2.91852
H         26.02381        31.79831         2.33261
H         25.78919        33.46233         1.14707
H         25.75930        35.85916         0.68458
H         25.84775        37.78702         0.92074
H         25.91062        40.20964         0.84126
H         25.98854        42.06930         0.90231
H         26.11563        44.51322         1.04539
H         27.39640        46.60432         0.80566
H         29.38161        25.93182         2.67483
H         29.45761        47.79490         0.20722
H         32.98020        23.68033         1.75269
H         30.90307        24.90180         2.02405
H         32.94741        49.94532        -1.05776
H         30.95457        48.72344        -0.45875
H         34.52409        22.73244         1.26706
H         34.54504        50.84334        -1.81256
H         36.51967        21.49099         0.69861
H         36.68218        51.98987        -2.43786
H         40.17166        19.28256        -0.20560
H         38.09844        20.52520         0.22699
H         39.63702        53.68529         1.16972
H         38.68076        53.07228        -1.07736
H         42.62173        19.23844        -0.51691
H         42.12132        53.59294         2.63500
H         44.78634        20.38762        -0.61547
H         43.94977        52.14038         3.07530
H         48.62099        22.38402        -0.31251
H         46.47171        21.27278        -0.42528
H         47.84479        50.24938         3.34362
H         45.78879        51.45535         2.96813
H         50.32843        23.37790        -1.25780
H         49.73204        49.46146         2.66295
H         52.40221        24.62204        -1.48480
H         51.84530        48.50959         1.89459
H         56.16515        26.84023        -0.82542
H         54.09256        25.65249        -1.25940
H         55.64994        46.55515         1.30038
H         53.60065        47.68935         1.16606
H         57.33801        29.05291        -0.87134
H         57.38336        31.47981        -0.41774
H         57.46459        33.47389         1.00605
H         57.02940        35.76538         1.30937
H         56.62369        37.45092         2.47297
H         56.68512        39.88908         2.44294
H         56.97248        41.89467         1.99421
H         56.84556        44.35780         2.12935
