         424
 CSIRO Nanostructure Databank - Neutral Graphene Oxide Data Set
C          1.40534         3.79949         1.82273
C          0.27904         4.59675         2.09416
C          1.26438         6.50625         0.93614
C          0.20229         5.91914         1.67536
C          1.25912         7.87805         0.48737
C          0.31901         8.86068         1.00623
C          1.00880        10.50073        -0.75485
C          0.23925        10.10238         0.48775
C          1.16525        12.00779        -0.83593
C         -0.02088        12.74040        -0.90030
C          1.19832        14.84587        -0.85779
C         -0.01367        14.13311        -0.91899
C          1.21197        16.29797        -0.84156
C          0.02488        17.05786        -0.74197
C          1.27332        19.14792        -0.79098
C          0.05154        18.44264        -0.68069
C          1.31763        20.61374        -0.75596
C          0.30534        21.36786        -0.24030
C          1.26395        23.49710        -0.98641
C          0.26099        22.80496        -0.38288
C          1.25430        24.98733        -1.25357
C         -0.02325        25.67120        -0.85675
C          1.18607        27.73130        -0.35508
C         -0.02978        26.98353        -0.51136
C          1.13441        29.23729        -0.42769
C         -0.05831        29.91959         0.20295
C          1.12486        32.07504        -0.07550
C         -0.08161        31.25369         0.33398
C          1.11865        33.53679         0.34279
C         -0.07233        34.27490         0.43064
C          1.16091        36.36683         0.60420
C         -0.05765        35.65872         0.60023
C          1.21126        37.79991         0.67618
C          3.67646         3.56217         0.80959
C          2.50267         4.33774         1.13745
C          3.49232         6.21942        -0.07601
C          2.41738         5.69939         0.68991
C          3.24917         7.38799        -0.78431
C          2.22645         8.30298        -0.44214
C          3.65836        10.49414        -1.01405
C          2.31423         9.72713        -0.89922
C          3.65580        11.96681        -0.80882
C          2.41884        12.68738        -0.83518
C          3.68019        14.82642        -0.79676
C          2.42688        14.12193        -0.82660
C          3.69594        16.25826        -0.83578
C          2.45940        16.98596        -0.89358
C          3.75991        19.10272        -1.02149
C          2.45899        18.40863        -0.94955
C          3.81697        20.58400        -1.21831
C          2.46013        21.27299        -1.50779
C          3.78969        23.53102        -0.99186
C          2.51737        22.78997        -1.33262
C          3.68564        24.95144        -0.54211
C          2.48751        25.64329        -0.64626
C          3.64957        27.77368        -0.14731
C          2.42551        27.06207        -0.37087
C          3.62065        29.20923         0.01700
C          2.41697        29.90480         0.00238
C          3.64226        32.08375         0.34761
C          2.35079        31.32847         0.50070
C          3.61736        33.48626         0.38623
C          2.35881        34.21201         0.41201
C          3.61683        36.34350         0.38734
C          2.38232        35.63678         0.49734
C          3.64419        37.77683         0.42937
C          2.40201        38.47475         0.59661
C          6.06633         3.44367         0.17695
C          4.84157         4.15115         0.33258
C          6.12373         6.27675        -0.33203
C          4.85940         5.65955         0.25009
C          6.22086         7.68086        -0.56466
C          5.12355         8.45803        -1.04541
C          6.15180        10.54328        -0.44273
C          4.96749         9.81230        -0.80938
C          6.13055        11.95747        -0.43288
C          4.88140        12.67143        -0.64405
C          6.19975        14.82424        -0.85408
C          4.88891        14.09485        -0.68860
C          6.17395        16.26806        -0.40802
C          4.92497        16.97906        -0.57683
C          6.04900        19.12687         0.10015
C          4.91578        18.36532        -0.50037
C          6.12150        20.59253        -0.26549
C          4.99871        21.32722        -0.67618
C          6.09102        23.45919        -0.08944
C          5.00233        22.76023        -0.62951
C          6.06954        24.87995         0.10681
C          4.89115        25.61938        -0.10679
C          6.07585        27.78664         0.19674
C          4.87303        27.06466         0.00952
C          6.09410        29.21178         0.17194
C          4.86888        29.92553         0.16355
C          6.11141        32.03420         0.28979
C          4.87746        31.35268         0.26971
C          6.13321        33.49053         0.63845
C          4.84419        34.22565         0.36562
C          6.07239        36.34484        -0.18778
C          4.83676        35.61361         0.28270
C          6.10029        37.82223         0.14919
C          4.87173        38.47771         0.36303
C          8.53138         3.39621         0.04680
C          7.29748         4.10776         0.05532
C          8.54584         6.26470         0.06092
C          7.31937         5.56728        -0.07805
C          8.60089         7.67377         0.02147
C          7.41366         8.40099        -0.28275
C          8.60553        10.53777        -0.04955
C          7.38350         9.82657        -0.27303
C          8.60268        11.95158        -0.00850
C          7.36156        12.68355        -0.23294
C          8.70879        14.78441        -0.39678
C          7.38586        14.06826        -0.33381
C          8.62652        16.26281        -0.08138
C          7.35792        16.95493        -0.13243
C          8.53600        19.11073         0.20892
C          7.36755        18.40043         0.03079
C          8.54669        20.55817         0.26028
C          7.33547        21.25822         0.08827
C          8.61456        23.44621         0.53954
C          7.27454        22.70094         0.33657
C          8.61844        24.89849         0.36618
C          7.31177        25.56707         0.53556
C          8.60718        27.78195         0.29797
C          7.32549        27.08760         0.50882
C          8.59260        29.19535         0.18174
C          7.34457        29.91158         0.19005
C          8.58690        32.05045         0.12071
C          7.34431        31.33368         0.19409
C          8.56792        33.49548         0.06264
C          7.37359        34.19167         0.17193
C          8.57267        36.36021        -0.34701
C          7.36890        35.68893         0.30760
C          8.58540        37.83147         0.01155
C          7.33209        38.49253         0.17369
C         11.01554         3.39482         0.13351
C          9.76904         4.04728         0.17733
C         11.05037         6.25174         0.58155
C          9.74704         5.50414         0.44116
C         11.05745         7.70798         0.36499
C          9.83772         8.39397         0.19328
C         11.05400        10.52967         0.27525
C          9.83119         9.81963         0.12307
C         11.02666        11.94913         0.36390
C          9.82193        12.63851         0.24163
C         11.09014        14.82251         0.32309
C          9.76210        14.12375         0.49230
C         11.06992        16.23217         0.19547
C          9.80687        16.93241         0.15882
C         11.01413        19.09866        -0.16660
C          9.83383        18.39981         0.50364
C         11.04477        20.57495         0.15486
C          9.81677        21.27153         0.30942
C         11.06394        23.42030         0.22192
C          9.84993        22.69149         0.35835
C         11.05762        24.85738         0.14853
C          9.81119        25.59236         0.21815
C         11.04061        27.76133         0.06434
C          9.82477        27.05866         0.19558
C         11.06084        29.18649         0.08352
C          9.82429        29.90925         0.11742
C         11.05624        32.05561         0.03053
C          9.81555        31.34272         0.07740
C         11.05728        33.48501         0.02271
C          9.83026        34.21536        -0.00608
C         11.06143        36.33948        -0.00092
C          9.85038        35.62438        -0.03334
C         11.05899        37.78790         0.04082
C          9.80140        38.48780         0.10997
C         13.47856         3.39534         0.01901
C         12.25717         4.08252         0.21394
C         13.51477         6.21045         0.40428
C         12.31098         5.51156         0.40339
C         13.53861         7.66774         0.45048
C         12.29141         8.40257         0.36893
C         13.54273        10.53767         0.34301
C         12.29780         9.81843         0.35001
C         13.55172        11.94239         0.40542
C         12.28317        12.66715         0.79941
C         13.53385        14.82088         0.37168
C         12.29183        14.12588         0.42950
C         13.52377        16.22763         0.29467
C         12.30560        16.95780         0.21032
C         13.52720        19.11572         0.08541
C         12.30980        18.38224         0.11924
C         13.51921        20.55176         0.03687
C         12.27363        21.27258         0.11944
C         13.53762        23.41690         0.14142
C         12.29627        22.70369         0.15611
C         13.50165        24.84881         0.12521
C         12.29080        25.54847         0.04854
C         13.57235        27.75636         0.04829
C         12.30045        27.01867        -0.31342
C         13.55791        29.18514         0.10177
C         12.30041        29.90340         0.07513
C         13.51653        32.06102         0.08046
C         12.29705        31.33803         0.06209
C         13.52595        33.47964         0.00030
C         12.28663        34.19958         0.00913
C         13.52850        36.33432         0.01503
C         12.29653        35.62375         0.01624
C         13.52466        37.77063         0.03537
C         12.27566        38.46609         0.07065
C         15.92837         3.37867        -0.22527
C         14.71022         4.07114         0.01026
C         15.98427         6.16645         0.30396
C         14.75898         5.49623         0.24523
C         16.02335         7.60905         0.75430
C         14.74552         8.35400         0.46510
C         16.00928        10.45451         0.19554
C         14.78985         9.78998         0.32921
C         16.02227        11.92746        -0.15170
C         14.76449        12.67105         0.27244
C         16.02644        14.80581         0.15513
C         14.78125        14.07125         0.33749
C         16.00574        16.18096         0.02480
C         14.81208        16.96769         0.50059
C         15.96159        19.14283        -0.06789
C         14.76891        18.42254         0.10048
C         15.96726        20.54479        -0.16332
C         14.74886        21.26873        -0.02631
C         16.04691        23.39006         0.01293
C         14.76961        22.70169         0.05575
C         16.06742        24.84505         0.30433
C         14.76335        25.59378         0.32310
C         16.02838        27.75627         0.20948
C         14.78072        27.06594         0.16252
C         16.01929        29.18390         0.19913
C         14.78075        29.87875         0.20845
C         16.03670        32.03703        -0.01883
C         14.78975        31.36071         0.47131
C         15.99360        33.45949        -0.48847
C         14.74682        34.19933        -0.09287
C         16.00087        36.33281        -0.09969
C         14.76029        35.61425        -0.06137
C         15.98966        37.76283        -0.03579
C         14.74982        38.45691         0.01993
C         18.36999         3.34728        -0.52709
C         17.14775         4.04856        -0.23992
C         18.44058         6.13872         0.00292
C         17.20200         5.46779         0.04197
C         18.56248         7.57817         0.46155
C         17.27125         8.35121         0.33832
C         18.52698        10.45672         0.01959
C         17.26412         9.72426         0.19660
C         18.54199        11.87152         0.02113
C         17.27502        12.61257         0.39627
C         18.48467        14.76598        -0.06158
C         17.28983        14.08714         0.05513
C         18.53041        16.20788        -0.05367
C         17.25061        16.90854        -0.24804
C         18.47929        19.08885         0.19613
C         17.23758        18.40177        -0.24912
C         18.47194        20.59838         0.12959
C         17.25285        21.25262        -0.51587
C         18.52352        23.47235        -0.51941
C         17.22773        22.73531        -0.24124
C         18.51551        24.92237        -0.07442
C         17.32763        25.60158         0.13137
C         18.48669        27.77754         0.18107
C         17.28930        27.05306         0.22473
C         18.48360        29.20629         0.07363
C         17.25499        29.91175         0.13300
C         18.48897        32.06256        -0.19488
C         17.23957        31.34811        -0.03353
C         18.49540        33.49828        -0.20454
C         17.26673        34.21122        -0.21179
C         18.48080        36.34941        -0.10442
C         17.24737        35.62284        -0.14219
C         18.45401        37.78270        -0.05269
C         17.21684        38.46481        -0.02332
C         19.55790         4.01458        -0.59486
C         20.82776         6.13563        -0.54340
C         19.62146         5.43124        -0.35386
C         20.86077         7.53985        -0.50538
C         19.75239         8.29106        -0.13177
C         20.93058        10.46193        -0.41964
C         19.74128         9.73630        -0.17557
C         20.92390        11.84614        -0.45715
C         19.74179        12.56713        -0.21080
C         20.94443        14.76981         0.27561
C         19.78118        14.06691        -0.38914
C         20.92680        16.11201         0.42112
C         19.72959        16.90112         0.13980
C         20.91784        19.10531         0.32084
C         19.75609        18.34883         0.21511
C         20.92001        20.52052         0.25921
C         19.77091        21.28888         0.07791
C         20.94547        23.45361         0.05811
C         19.78343        22.72371        -0.08941
C         20.94876        24.87481         0.06216
C         19.77524        25.60152         0.02995
C         20.93763        27.80763        -0.30405
C         19.80897        27.07358         0.36936
C         20.89319        29.15228        -0.46773
C         19.70574        29.91333        -0.17498
C         20.93227        32.08543        -0.28293
C         19.71149        31.34650        -0.23274
C         20.93976        33.46295        -0.24494
C         19.73353        34.21047        -0.19205
C         20.92159        36.41544        -0.12747
C         19.72752        35.65817        -0.14454
C         20.89067        37.81302        -0.07301
C         19.68255        38.49695        -0.03639
O          4.15838         7.76314        -1.77706
O         10.27082         5.85410         1.77567
O          3.33121        23.38174        -2.40598
O          4.15913        19.71029        -2.34645
O         15.41772        25.17621         1.58682
O          7.22348        26.33461         1.78273
O          2.90634        10.01352        -2.19544
O         17.28562        17.71335        -1.53394
O          7.77354        23.03666         1.67401
O         18.21556        19.91212         1.38735
O          6.42784        14.90288        -2.33632
H          6.16456        14.03552        -2.71430
O         12.23829        12.65431         2.27871
H         12.39372        11.72878         2.56563
O          7.46755        35.95943         1.73223
H          6.90475        35.29194         2.19874
O         19.97561        14.25846        -1.83290
H         19.87882        15.21761        -2.01605
O          9.35039        14.30869         1.87473
H         10.04704        13.90648         2.43866
O          1.35414        25.17683        -2.70031
H          2.12958        24.63770        -2.99739
O          8.45989        36.26477        -1.79176
H          9.22502        36.73673        -2.18064
O         16.10657         7.53617         2.24461
H         15.98308         8.45031         2.58159
O         14.83842        31.49269         1.95674
H         14.10524        30.94906         2.31767
O         18.61242        23.54473        -1.98930
H         18.47449        22.62189        -2.31906
O         15.90929        33.37449        -1.98012
H         15.98105        34.29164        -2.32251
O         10.06139        18.49801         1.93947
H          9.38839        17.94707         2.39149
O         20.10039        27.12950         1.81584
H         20.03859        28.06962         2.08899
O          5.99161        36.22493        -1.63329
H          5.16675        36.66782        -1.92195
O         17.15347        12.53818         1.84781
H         17.89908        13.03483         2.24505
O          2.10308        31.24910         1.94948
H          2.88754        30.82975         2.36244
O          5.72455        19.16502         1.55780
H          6.44889        19.66062         1.99949
O         10.78545        18.99405        -1.60778
H         11.56013        19.38220        -2.06582
O          6.22691        33.52547         2.14715
H          6.95119        32.91135         2.39958
O          1.22159        32.13971        -1.51398
H          1.06690        31.22868        -1.87603
O          0.18463        10.09449        -1.88746
H          0.77414        10.10325        -2.67391
O          2.13548        21.05182        -2.89597
H          2.85452        21.45393        -3.42961
O         18.83638         7.49542         1.91242
H         17.97401         7.25846         2.33905
O         17.46490        21.06353        -1.96588
H         16.60908        21.22304        -2.41769
O         16.09966        12.02234        -1.60282
H         15.30688        11.58639        -1.97908
O         12.29354        27.00973        -1.79619
H         12.27844        27.94581        -2.09075
O          0.99729        29.47959        -1.89897
H          1.69836        28.95942        -2.34839
O          5.01089         6.09113         1.66864
H          5.79278         5.62326         2.03460
O          9.16386        14.65254        -1.77419
H          8.40945        14.94195        -2.34326
O         15.00162        17.01863         1.97715
H         14.21144        17.46166         2.35550
H          1.42583         2.75183         2.15585
H         -0.56536         4.15764         2.64438
H         -0.70301         6.50269         1.89323
H         -0.30789         8.58634         1.86709
H         -0.47351        10.82900         0.90566
H         -0.97729        12.20081        -0.93891
H         -0.97202        14.66478        -0.97773
H         -0.94869        16.55332        -0.68361
H         -0.89250        18.99526        -0.57974
H         -0.54557        20.88172         0.25820
H         -0.64074        23.32455        -0.02915
H         -0.97422        25.14795        -1.03067
H         -0.99023        27.49857        -0.36432
H         -0.92158        29.31606         0.52078
H         -0.96147        31.74370         0.77848
H         -1.04079        33.75991         0.35844
H         -1.00499        36.21170         0.67891
H          0.26810        38.35551         0.78420
H          3.66089         2.47955         1.01064
H          2.41909        39.57332         0.64844
H          6.06067         2.34757         0.28138
H          4.86370        39.56980         0.50620
H          8.50643         2.29796        -0.02237
H          7.33858        39.57536         0.38156
H         11.03674         2.30714        -0.03444
H          9.82244        39.57483         0.28671
H         13.46254         2.30800        -0.14840
H         12.28373        39.56551         0.11030
H         15.90019         2.29609        -0.42011
H         14.75540        39.55656         0.05222
H         18.32397         2.26436        -0.71279
H         17.20886        39.56391         0.02163
H         20.48742         3.48064        -0.84045
H         21.73211         5.58187        -0.83405
H         21.78494         8.03777        -0.83069
H         21.87913         9.93263        -0.57859
H         21.85315        12.38780        -0.68084
H         21.85342        14.20099         0.52128
H         21.81131        16.62712         0.82284
H         21.89315        18.60216         0.38201
H         21.90171        21.01399         0.27927
H         21.89727        22.94566         0.26804
H         21.90810        25.38502         0.22505
H         21.85438        27.25943        -0.56417
H         21.76797        29.67065        -0.88562
H         21.89226        31.55247        -0.30590
H         21.90724        33.98270        -0.25397
H         21.89741        35.91262        -0.15382
H         21.83652        38.37266        -0.05950
H         19.66584        39.59544         0.00339
