         244
 CSIRO Nanostructure Databank - Neutral Graphene Oxide Data Set
C          1.36763         1.95341        -0.67845
C          1.30326         3.37229        -0.51149
C          2.55791         1.28887        -0.55487
C          2.42737         4.11657        -0.25681
C          1.25107         6.34717        -0.75404
C          1.24224         7.68934        -0.75103
C          2.34563         5.61352        -0.00942
C          2.36262         8.44431        -0.11957
C          1.18383        10.74004        -0.38273
C          1.20304        12.08165        -0.48435
C          2.35856         9.95446         0.05750
C          2.36831        12.88221        -0.04958
C          1.29753        15.08141        -0.62330
C          1.34209        16.47168        -0.72578
C          2.45336        14.33174        -0.34510
C          2.55434        17.16264        -0.56424
C          2.61260        18.60280        -0.63236
C          3.76659         1.99740        -0.25002
C          3.71462         3.44945        -0.10412
C          4.97501         1.31524        -0.12123
C          4.87545         4.14457         0.17781
C          3.69566         6.27131        -0.36351
C          3.67550         7.77231        -0.16673
C          4.85206         5.63291         0.42634
C          4.86329         8.46138        -0.11843
C          3.67198        10.63606         0.04908
C          3.68626        12.10613         0.16581
C          4.87106         9.92866        -0.06505
C          4.94929        12.83802        -0.00410
C          3.70792        14.99461        -0.23653
C          3.75500        16.41835        -0.34998
C          4.94347        14.26200        -0.10394
C          4.99939        17.10815        -0.26379
C          3.78117        19.27452        -0.43409
C          5.01551        18.56356        -0.17683
C          6.19261         1.97984         0.17924
C          6.14644         3.43898         0.56948
C          7.39930         1.30166         0.26643
C          7.39051         4.20037         0.16572
C          6.14772         6.33793         0.07436
C          6.11667         7.69474        -0.14691
C          7.38973         5.57649         0.03627
C          7.37870         8.41444        -0.40040
C          6.11071        10.65392        -0.11677
C          6.15059        12.06716        -0.07398
C          7.37524         9.92584        -0.35555
C          7.42652        12.74673        -0.13461
C          6.17397        14.98158        -0.22647
C          6.21394        16.38575        -0.29894
C          7.42048        14.20465        -0.37459
C          7.49344        17.22157        -0.41265
C          6.15622        19.21039         0.23410
C          7.35797        18.39978         0.67333
C          8.64573         1.98976         0.39221
C          8.67062         3.43175        -0.06489
C          9.82696         1.32129         0.65700
C          9.88334         4.20315         0.36621
C          8.65050         6.30297        -0.05963
C          8.64676         7.70287        -0.14676
C          9.88970         5.58943         0.18781
C          9.83988         8.45628         0.05521
C          8.63562        10.60721         0.00113
C          8.61873        12.04153         0.01639
C          9.81001         9.88004         0.21990
C          9.93315        12.72617         0.04725
C          8.71811        14.95482        -0.37908
C          8.75789        16.42562        -0.23680
C          9.99749        14.21259        -0.15699
C         10.01856        17.00071        -0.35657
C          8.62601        19.21760         0.77910
C          9.75117        18.78238         1.44859
C         11.09009         1.99434         0.77646
C         11.04519         3.48754         1.01078
C         12.29525         1.31874         0.81613
C         12.36742         4.14390         0.72918
C         11.11061         6.34895         0.24470
C         11.08290         7.74214         0.15114
C         12.40844         5.65070         0.59700
C         12.30977         8.54443         0.19638
C         10.93962        10.57129         0.97429
C         11.09411        12.04075         0.63926
C         12.28181         9.84664         0.88828
C         12.26683        12.75285         0.84967
C         11.12262        14.97773         0.41239
C         11.14125        16.33683         0.31965
C         12.23549        14.24391         1.13554
C         12.24695        17.07872         1.09543
C         11.09142        19.32509         1.14845
C         12.24162        18.58656         0.92551
C         13.57514         1.99633         0.85353
C         13.54277         3.45407         0.79637
C         14.79252         1.33193         0.81619
C         14.85015         4.22208         0.81776
C         13.55447         5.96172        -0.33278
C         13.45770         8.15715        -0.44363
C         14.76307         5.36446        -0.16614
C         14.74260         8.79667        -0.27577
C         13.56957        10.63189         0.91510
C         13.53131        12.09997         0.95612
C         14.79749        10.01744         0.38517
C         14.74342        12.80994         0.79372
C         13.54056        14.96003         0.82271
C         13.53634        16.36924         0.74537
C         14.72427        14.23025         0.65978
C         14.73264        17.09889         0.49395
C         13.49116        19.23547         0.64668
C         14.69909        18.55309         0.48833
C         16.06825         2.01142         0.64679
C         16.08255         3.41663         0.53443
C         17.29635         1.31886         0.48718
C         17.26895         4.12815         0.24616
C         15.99085         5.94703        -0.64259
C         15.98014         8.17457        -0.66563
C         17.22013         5.53616        -0.17740
C         17.21658         8.60802        -0.20910
C         16.04051        10.72063         0.48745
C         16.00376        12.09758         0.71684
C         17.28600         9.99234         0.25659
C         17.25931        12.85633         0.78221
C         15.93569        14.92609         0.10848
C         15.94158        16.41377         0.29856
C         17.24703        14.27531         0.44430
C         17.18347        17.10651         0.17177
C         15.94545        19.23797         0.30227
C         17.15093        18.56300         0.17227
C         18.49395         2.02056         0.26078
C         18.47756         3.43070         0.14551
C         19.78194         1.34541         0.06972
C         19.77557         4.18563         0.04577
C         18.43076         6.34381        -0.32317
C         18.43193         7.78928        -0.31584
C         19.66693         5.65813        -0.31708
C         19.67427         8.46256        -0.28164
C         18.50135        10.64585         0.31121
C         18.58952        12.08864         0.60279
C         19.79675         9.89092         0.21967
C         19.72870        12.84384         0.04238
C         18.42973        14.95695         0.17227
C         18.39123        16.39986         0.04718
C         19.66128        14.22517        -0.08313
C         19.70820        17.13234         0.12170
C         18.39130        19.26528        -0.05148
C         19.58617        18.60722        -0.19968
C         20.86046         1.99730        -0.41274
C         20.77402         3.44945        -0.84330
C         22.08534         4.20401        -0.82519
C         20.88433         6.34015        -0.52725
C         20.88774         7.76639        -0.51674
C         22.10455         5.54769        -0.69029
C         22.07573         8.55136        -0.77056
C         20.92715        10.69331        -0.39300
C         20.89944        12.08713        -0.39727
C         22.07290         9.92179        -0.78648
C         22.07595        12.87682        -0.73783
C         20.71105        14.94948        -0.91024
C         20.81870        16.43864        -0.63812
C         22.02571        14.21653        -0.88859
C         21.85481        17.17560        -1.11315
C         20.78958        19.30826        -0.57680
C         21.88827        18.61541        -0.98894
O          2.07538         9.04692         1.19632
O          2.84588        12.57364         1.29151
O          8.09019        14.57597        -1.66440
O         15.90857         7.05391        -1.50355
O         13.39860         7.00340        -1.25075
O         10.33882        13.32304        -1.26348
O          7.38547         9.19987        -1.65144
O         18.12483        12.50525         1.91863
O         13.04448         9.93210         2.13293
O         11.93699        14.31181         2.52343
O         12.05121        16.88679         2.52654
H         12.03874        15.87879         2.71824
O          4.68082         5.82876         1.86047
H          3.72497         5.64421         2.06151
O          8.78447         3.31879        -1.54525
H          8.84104         4.23097        -1.90355
O         15.03917         4.75484         2.16097
H         14.28829         5.38106         2.33245
O         10.23368        18.12200        -1.07949
H          9.37124        18.36955        -1.50068
O         20.21721         9.73065         1.63066
H         19.46801         9.32617         2.11786
O          6.99647        17.79359         1.92296
H          7.82892        17.61167         2.41945
O         15.80289        14.73188        -1.36838
H         16.52391        15.24965        -1.78942
O          2.07801         5.79143         1.41419
H          1.85692         6.73681         1.56968
O         12.77391         6.19410         1.92058
H         12.06114         5.91990         2.53965
O          7.53045        17.88372        -1.71419
H          7.52070        17.17392        -2.39302
O         20.26392         3.47539        -2.20433
H         20.89410         2.98847        -2.77424
O         20.35150         4.15996         1.38921
H         19.69563         4.55112         2.00346
O         10.83443         3.66941         2.46844
H         11.41379         3.02318         2.92674
O          6.15967         3.44952         2.04332
H          5.81117         4.33378         2.32196
O         20.10140        17.06419         1.54169
H         19.40225        17.51394         2.06241
O          3.90869         6.00505        -1.77060
H          4.75805         6.41981        -2.03317
O         10.50701        10.53196         2.36491
H         11.32409        10.61805         2.91092
O         20.21533        14.86753        -2.30084
H         20.28036        13.92836        -2.57693
O          9.62656        17.82148         2.40000
H         10.53009        17.50999         2.70600
H          0.44262         1.40218        -0.89731
H          0.31965         3.85798        -0.58317
H          2.60305         0.19654        -0.67443
H          0.44319         5.79137        -1.25229
H          0.42835         8.24200        -1.24409
H          0.26887        10.19154        -0.64996
H          0.32075        12.60446        -0.88113
H          0.32617        14.57668        -0.71616
H          0.41596        17.03459        -0.90915
H          1.67866        19.15353        -0.81718
H          4.99804         0.22981        -0.30591
H          3.80044        20.37421        -0.43905
H          7.40568         0.20061         0.21767
H          6.15465        20.30522         0.35321
H          9.80265         0.22803         0.79472
H          8.76582        20.00076         0.01884
H         12.29354         0.22090         0.72408
H         11.13955        20.40658         0.93512
H         14.79769         0.23076         0.83860
H         13.50182        20.33649         0.60911
H         17.31173         0.21980         0.54091
H         15.94259        20.33844         0.27869
H         19.84400         0.27231         0.30971
H         18.35385        20.35869        -0.17871
H         21.80487         1.45401        -0.57890
H         23.02498         3.65124        -0.98541
H         23.06995         6.07420        -0.72294
H         23.00312         8.02979        -1.04603
H         22.98886        10.44057        -1.10362
H         23.04820        12.36875        -0.80860
H         22.95056        14.77028        -1.10545
H         22.68462        16.69568        -1.65225
H         20.77757        20.40829        -0.59702
H         22.79055        19.14964        -1.31820
