         210
 CSIRO Nanostructure Databank - Neutral Graphene Oxide Data Set
C         30.36723        31.69758         0.62872
C         30.40449        32.90860         0.32958
C         30.44102        36.05738        -0.04093
C         30.34065        37.28384         0.10429
C         30.39885        40.53093        -0.15324
C         30.27632        41.77637        -0.17806
C         32.81866        28.96300         1.12960
C         31.68102        29.50267         1.08570
C         32.76509        31.53694         0.43585
C         31.52452        30.85789         0.73033
C         32.74198        32.93977        -0.05511
C         31.49590        33.76821         0.04047
C         32.79288        35.89505        -0.11051
C         31.53177        35.13613        -0.08903
C         32.79123        37.32368        -0.08404
C         31.54166        38.13246         0.16201
C         32.80821        40.25404        -0.54499
C         31.55554        39.64056        -0.03371
C         32.91042        41.53803        -1.07950
C         30.99095        42.79027        -0.85632
C         32.78135        44.27564        -0.86110
C         31.59105        43.99828        -0.47205
C         35.51697        27.44102         1.26449
C         35.33805        28.81069         1.00644
C         34.09728        29.49739         0.91355
C         35.29642        31.61145         0.44377
C         34.03361        30.88936         0.56187
C         35.31109        33.00115         0.24309
C         34.06691        33.71173        -0.12440
C         35.24580        35.88653         0.09886
C         34.02233        35.18603        -0.06405
C         35.21999        37.30639         0.04517
C         34.01851        38.01988        -0.08872
C         35.28525        40.28947        -0.13785
C         34.09498        39.45896        -0.57133
C         35.32754        41.64045        -0.43954
C         34.11921        42.32154        -0.91290
C         35.34512        44.54150        -0.95002
C         34.07430        43.74015        -0.85273
C         35.34485        45.89134        -0.22830
C         37.89129        27.36387         1.00031
C         36.61986        26.82990         1.21932
C         37.84158        28.80288         0.84991
C         36.58514        29.50469         0.81557
C         37.79605        31.61686         0.48220
C         36.55945        30.91266         0.59111
C         37.80281        33.04787         0.42577
C         36.53095        33.75390         0.34725
C         37.73239        35.90853         0.50669
C         36.48470        35.15735         0.28763
C         37.74422        37.35313         0.12571
C         36.45489        38.07043         0.35051
C         37.79267        40.27319         0.42312
C         36.47098        39.56111         0.36238
C         37.78348        41.76445         0.23141
C         36.53250        42.43705        -0.20521
C         37.80997        44.52623        -0.14173
C         36.57378        43.79485        -0.41457
C         37.78965        45.93676         0.09770
C         36.45731        46.41951        -0.02868
C         40.16373        24.60223         0.00350
C         39.18475        25.25947         0.43278
C         40.32518        27.30622         0.50839
C         39.09417        26.64430         0.70716
C         40.36394        28.77294         0.91361
C         39.06056        29.50554         0.67535
C         40.29099        31.62715         0.33223
C         39.05150        30.90908         0.50173
C         40.28480        33.03633         0.26773
C         39.03996        33.73080         0.38469
C         40.31325        35.94928         0.25053
C         39.06372        35.19222         0.52463
C         40.30881        37.33969         0.17956
C         39.03823        38.08884         0.05790
C         40.26908        40.24662         0.09000
C         39.05737        39.55427         0.20244
C         40.28295        41.69626         0.02531
C         39.07822        42.43249        -0.01961
C         40.33435        44.62310        -0.19772
C         39.05122        43.84070        -0.08924
C         40.25331        45.99452         0.44749
C         38.97801        46.63439         0.45716
C         40.11418        48.61641         1.24259
C         39.09099        47.97483         0.89709
C         42.65831        24.62348        -0.67776
C         41.43737        25.16896        -0.22346
C         42.74085        27.31630        -0.06227
C         41.50184        26.60721         0.07735
C         42.86796        28.74886         0.45827
C         41.57120        29.51664         0.40310
C         42.77200        31.63178        -0.04028
C         41.54816        30.89494         0.24264
C         42.75243        33.06870        -0.08445
C         41.52791        33.78309         0.12400
C         42.76887        35.94088         0.01385
C         41.53798        35.20735         0.12279
C         42.77250        37.36267         0.00850
C         41.52927        38.09614         0.06017
C         42.76748        40.25246        -0.35764
C         41.50523        39.50192        -0.00520
C         42.76942        41.70025         0.07828
C         41.54521        42.41421         0.07699
C         42.74830        44.51919         0.48891
C         41.55161        43.82686         0.19543
C         42.71235        45.94023         0.78065
C         41.45509        46.66525         0.81991
C         42.69294        48.60383         1.53500
C         41.41634        48.06882         1.23569
C         43.71204        25.30344        -0.75091
C         45.18110        27.36865        -0.54225
C         43.92912        26.67100        -0.47124
C         45.23374        28.79046        -0.43702
C         44.02342        29.50773        -0.14757
C         45.18515        31.57868        -0.86234
C         43.97713        30.89974        -0.24957
C         45.20019        33.09570        -0.68691
C         43.96245        33.80988        -0.28096
C         45.25508        35.94682        -0.07091
C         44.00266        35.21140        -0.12532
C         45.23898        37.34571         0.06551
C         44.01384        38.08998        -0.00467
C         45.25666        40.24790         0.04400
C         44.03494        39.50563        -0.01596
C         45.24621        41.67238         0.16896
C         43.98929        42.38619         0.25086
C         45.22213        44.48005         0.72978
C         43.98142        43.79405         0.51606
C         45.17815        45.87816         1.04065
C         43.94509        46.57917         1.10048
C         43.75121        47.93784         1.44971
C         47.57458        27.40674        -0.69022
C         46.46526        26.81560        -0.71880
C         47.76031        28.79667        -0.51326
C         46.49528        29.49716        -0.48707
C         47.70803        31.61439        -0.25552
C         46.49686        30.90838        -0.47146
C         47.75127        33.04653        -0.28376
C         46.50817        33.80743        -0.51260
C         47.73785        35.89427        -0.22317
C         46.51333        35.24300        -0.16567
C         47.79290        37.34197         0.03241
C         46.49335        38.09733         0.20905
C         47.72957        40.26522        -0.05847
C         46.51314        39.56431         0.03234
C         47.72611        41.69594         0.07408
C         46.47896        42.37694         0.28333
C         47.72948        44.45071         0.72482
C         46.47015        43.77947         0.58387
C         47.56784        45.81217         1.08689
C         46.47648        46.40927         1.22591
C         50.28818        28.94903        -0.13632
C         48.96284        29.50967        -0.27952
C         50.07535        31.66248         0.61529
C         48.92433        30.89399        -0.02193
C         50.21725        33.02984        -0.04196
C         48.98072        33.73969        -0.22655
C         50.20761        35.85046        -0.53071
C         48.98329        35.17153        -0.38856
C         50.21352        37.31891        -0.77877
C         48.95209        38.11145        -0.49136
C         50.19972        40.24633        -0.44421
C         49.00260        39.57562        -0.27398
C         50.19772        41.76592        -0.54071
C         48.95550        42.41666         0.05687
C         50.25128        44.37970         0.45050
C         48.94634        43.78493         0.43321
C         51.29379        29.64269         0.16417
C         52.32706        31.30863         1.74645
C         51.40835        30.88214         0.82579
C         53.06193        31.75475         2.66558
C         51.42733        33.70376        -0.22465
C         52.60054        35.92184        -0.60107
C         51.42857        35.10682        -0.48486
C         52.53971        37.17781        -0.68415
C         51.48657        38.10146        -0.72353
C         52.58846        40.34148        -0.54292
C         51.45800        39.49520        -0.62004
C         52.63085        41.56855        -0.22113
C         51.58824        42.45703        -0.06901
C         51.34739        43.76941         0.32860
O         45.86923        33.67733        -1.87038
O         47.34613        37.70691         1.36749
O         33.43053        33.13924        -1.32528
O         38.28870        37.63014        -1.20063
O         31.70887        39.01928         1.28360
O         31.83993        42.09898        -1.82000
O         37.78221        41.18363         1.58542
O         36.28781        38.78629         1.61617
O         38.39820        35.63890         1.77774
O         49.30966        37.72610        -1.85863
O         35.56736        44.78696        -2.34114
H         34.79201        45.26398        -2.70428
O         40.52046        44.88917        -1.64170
H         39.70816        45.33066        -1.97075
O         45.04116        31.31569        -2.29093
H         45.51253        32.04933        -2.75385
O         49.63382        31.91535         1.97516
H         50.41019        32.22033         2.49816
O         50.15486        42.05685        -1.95594
H         50.05227        43.02531        -2.07199
O         34.33952        39.22722        -2.02134
H         34.34819        40.09747        -2.47666
O         43.20581        28.61172         1.88344
H         42.36368        28.39758         2.35918
O         52.61019        33.06191        -0.18744
H         53.33716        33.71341        -0.28100
O         42.76345        40.32201        -1.84091
H         42.73114        39.40128        -2.17894
O         40.51766        28.73606         2.39692
H         40.41121        29.65477         2.72678
