         276
 CSIRO Nanostructure Databank - Neutral Graphene Oxide Data Set
C        -11.22729         0.67616         0.25788
C        -10.00035         1.39085         0.76822
C         -8.73187         0.65262         0.41452
C         -7.47857         1.39567         0.69493
C         -6.16650         0.68329         0.77226
C         -4.89558         1.43475         0.56037
C         -3.62505         0.64245         0.79898
C         -2.37331         1.36910         0.23344
C         -1.17711         0.62736        -0.28583
C          0.01187         1.30471        -0.94357
C          1.21194         0.38332        -1.14231
C          2.83748         1.30345        -0.85897
C          3.54957         0.84437         0.43710
C          4.79754         1.66002         0.90082
C          6.11293         0.89624         0.59924
C          7.30221         1.64694         1.21451
C          8.63276         0.93644         1.25943
C          9.96183         1.73032         1.14646
C         11.14514         0.79258         0.97559
C         -9.94790         2.88278         0.51794
C         -8.75405         3.60909         0.41094
C         -7.48407         2.83041         0.26834
C         -6.17049         3.52770         0.21551
C         -4.89095         2.80249         0.48273
C         -3.65834         3.59374         0.37290
C         -2.46629         2.82635        -0.09321
C         -1.20483         3.53364        -0.48186
C          0.08415         2.79833        -0.84244
C          1.40878         3.47740        -0.75213
C          2.57924         2.80120        -0.84744
C          3.96437         3.46332        -0.92999
C          4.84866         3.07640         0.27067
C          6.14606         3.81403         0.41701
C          7.20609         3.15087         1.27472
C          9.41828         3.94826        -0.03187
C          9.91613         2.72493        -0.04658
C         -8.70085         5.01349         0.36745
C         -7.45776         5.74929        -0.08644
C         -6.19323         5.00517         0.43047
C         -4.89645         5.73468         0.56047
C         -3.64171         4.96476         0.35455
C         -2.47563         5.75356        -0.25134
C         -1.15206         4.99054        -0.15933
C          0.14394         5.71820        -0.27798
C          1.48785         4.93758        -0.31446
C          2.55923         5.71003        -1.09888
C          3.91136         4.99610        -1.07781
C          5.18542         5.73434        -0.86006
C          6.44053         4.96471        -0.51621
C          7.73874         5.71937        -0.63439
C          9.04176         5.22204        -0.07631
C         -7.29518         7.18353         0.32427
C         -6.13719         7.95084        -0.22246
C         -4.87615         7.23406         0.43003
C         -3.59175         7.98431         0.34545
C         -2.28985         7.20527         0.33965
C         -1.29913         7.94706        -0.64933
C          0.05454         7.13076        -0.92846
C          1.31591         7.90859        -0.56190
C          2.59865         7.14957        -0.54850
C          3.88911         7.91110        -0.44416
C          5.18877         7.18403        -0.51078
C          6.46077         7.90368        -0.78231
C          7.63012         7.19815        -0.87264
C         -6.04818         9.42923         0.10671
C         -4.87205        10.09843         0.14533
C         -3.57157         9.44149         0.06199
C         -2.37102        10.10145         0.00144
C         -1.10395         9.40251        -0.20374
C          0.09188        10.04954        -0.29618
C          1.32309         9.38856        -0.89668
C          2.66968        10.05983        -0.67070
C          3.85524         9.38397        -0.62800
C          5.16133        10.02637        -0.73560
C          6.34551         9.35375        -0.84553
C        -11.20280        -0.57128        -0.23066
C         -9.93445        -1.32646        -0.55515
C         -8.70945        -0.64966         0.04244
C         -7.47456        -1.46941         0.14184
C         -6.17962        -0.80308         0.53658
C         -4.89852        -1.45672         0.18030
C         -3.71221        -0.80142         0.29298
C         -2.38763        -1.53372         0.22277
C         -1.25154        -0.87528        -0.56267
C         -0.04118        -1.52415         0.14791
C          1.25568        -0.92320        -0.34976
C          2.48507        -1.52316         0.23237
C          3.61493        -0.62770         0.65192
C          4.91538        -1.28872         0.93689
C          6.07830        -0.58578         0.98945
C          7.36950        -1.32827         1.00600
C          8.64985        -0.56281         0.98548
C          9.79361        -1.14898         0.18015
C         11.09094        -0.49231         0.59771
C         -9.93329        -2.78904        -0.16192
C         -8.79441        -3.56046        -0.28467
C         -7.47876        -2.78784        -0.64782
C         -6.24468        -3.65314        -0.35643
C         -4.93233        -2.86686        -0.40724
C         -3.79060        -3.64751         0.29310
C         -2.44755        -3.05099        -0.15642
C         -1.26115        -3.72044         0.51374
C          0.03692        -3.02951         0.36264
C          1.14358        -3.58730         0.92309
C          2.41031        -2.77247         1.11679
C          3.67189        -3.54653         0.75110
C          4.94265        -2.76575         0.75211
C          6.22820        -3.49040         0.75946
C          7.38201        -2.77265         0.63000
C          8.66645        -3.41428         0.34872
C          9.79332        -2.66831         0.19760
C         -8.79384        -4.96893        -0.12562
C         -7.62607        -5.77561         0.06200
C         -6.29835        -5.09789         0.03822
C         -5.09889        -5.79749         0.68886
C         -3.81020        -5.17963         0.07299
C         -2.53314        -5.90385         0.50250
C         -1.29487        -5.18222         0.85450
C         -0.01167        -5.94082         1.18762
C          1.19568        -5.00597         1.39228
C          2.56035        -5.57015         1.46746
C          3.70634        -4.99039         1.05053
C          4.95234        -5.77061         0.74892
C          6.20183        -4.96946         0.55548
C          7.31408        -5.44974        -0.35641
C          8.67470        -4.94153         0.20132
C         -7.63206        -7.14744        -0.05540
C         -6.43325        -8.04618         0.17936
C         -5.09661        -7.31534         0.43396
C         -3.78907        -7.95176         0.06425
C         -2.49248        -7.22513         0.22636
C         -1.16555        -7.90089        -0.07866
C          0.00015        -7.44937         0.83740
C          1.22953        -8.36612         0.76258
C          2.57912        -7.79380         0.99322
C          3.67017        -8.03793         0.21859
C          4.74134        -6.99710        -0.16127
C          6.04818        -7.62022        -0.62463
C          7.22023        -6.93131        -0.63918
C         -6.25307        -9.15004        -0.85442
C         -5.07875        -9.70663        -1.19347
C         -3.71767        -9.12306        -0.88808
C         -2.63288       -10.10435        -0.38823
C         -1.27544        -9.41159        -0.24223
C         -0.13166       -10.11689        -0.41504
C          1.18269        -9.51075        -0.19238
C          2.32281        -9.92369        -0.80588
C          3.69642        -9.42763        -0.39344
C          4.80659        -9.62771        -1.38642
C          5.93303        -8.88899        -1.34498
O         -0.16016         2.10804        -2.13294
O          7.25941         4.79939        -1.69789
O         -1.54061        -4.15289         1.87768
O          6.00403        -5.79535         1.76185
O         -2.00064         8.07054        -1.83836
O         -6.13028        -4.70922        -1.35868
O          7.86457         1.16888         2.46337
O          2.59791        -6.84373         2.01379
O          0.38994        -5.51261         2.50863
O         -1.83273        -1.46255         1.61507
O          8.26089        -1.24933         2.19944
O          4.23899        -3.15478        -0.52648
O         -6.86677         1.13644         1.99603
O         -2.22256         3.21606        -1.49521
O         -5.70267         5.34549         1.74298
O         -0.42958         5.40583         1.02365
O          0.29849        -8.38863         1.88978
O          1.84652         7.43697         0.69974
O         -6.81439         3.06897        -1.03322
O          4.97302         4.12542         1.25643
O          2.09673        -1.84716        -1.11377
O         -1.23057         1.07714         1.09691
O         -0.37151        -1.11939         1.53031
O          4.70845         5.45942        -2.21883
O          4.61009         7.50659         0.78707
O          7.82606         3.80007         2.10109
O         -6.96179        -1.57579         1.50588
O         -4.35108        -8.11849         1.42720
O         -7.44162        -2.48662        -2.00592
O          2.91818         0.29894         1.61633
O         -4.35235         7.81787         1.63444
O          3.58851         0.93068        -1.88096
O         -6.80336        -8.74829         1.39896
H         -5.96338        -9.05550         1.81380
O          1.27149         0.05263        -2.47292
H          0.95387         0.81731        -3.00523
O         10.19482         2.44107         2.35464
H          9.34839         2.87466         2.62813
O        -10.08234         1.31816         2.23913
H         -9.16865         1.36269         2.59933
O          6.33087         0.92117        -0.82525
H          5.47324         0.78354        -1.30708
O          8.94575        -5.56748         1.45351
H          8.14397        -5.50812         2.01689
O          7.08052        -4.79464        -1.63580
H          7.75074        -5.11530        -2.27465
O          4.76676         1.80275         2.31163
H          4.02299         2.38681         2.56641
O         -0.80418        -7.37776        -1.39507
H         -1.48084        -7.72929        -2.02604
O         -9.79518        -1.24677        -1.99785
H         -8.92763        -1.69089        -2.24383
O          2.50341        -2.43101         2.50710
H          1.70527        -1.92418         2.76901
O          4.64975         2.92540        -2.05696
H          4.21597         3.22425        -2.88328
O         -1.81257         7.21226         1.66790
H         -2.57421         7.37672         2.27052
O         -4.74503        -2.64322        -1.83014
H         -5.67330        -2.61447        -2.22464
O         -1.26954        -0.99227        -1.96896
H         -1.25732        -1.94891        -2.21310
O         -4.01018        -3.35296         1.67311
H         -3.23379        -3.67245         2.19602
O         -5.97168         7.83689        -1.62926
H         -6.44742         7.03303        -1.95409
O          9.53098        -0.74313        -1.19978
H         10.25717        -1.08568        -1.76124
O         -7.42152         5.63101        -1.53473
H         -7.36490         4.66281        -1.74778
O          1.15609         9.46745        -2.34804
H          0.62272         8.68375        -2.63648
O          4.15644        -6.40845        -1.37393
H          4.76464        -5.70384        -1.69351
O          4.07525       -10.32945         0.71382
H          3.45256       -10.17591         1.45666
O         -3.21334        -8.58006        -2.14670
H         -3.83931        -7.88734        -2.45171
O         -3.85299        -5.47718        -1.34316
H         -3.14264        -4.94769        -1.77728
O         -2.27121        -3.28719        -1.57118
H         -3.09536        -2.96306        -2.03284
O          1.97382         4.81857         1.03701
H          1.83396         5.68381         1.49106
O          2.17944         5.72974        -2.48082
H          2.97877         5.95971        -3.00646
O         -3.03144       -10.66451         0.86341
H         -3.14647        -9.93832         1.51308
O         -2.87260         5.90118        -1.62210
H         -2.68730         5.05037        -2.08707
O         -3.49111         0.61540         2.22956
H         -2.67330         0.10319         2.43900
O         -5.18153        -5.59203         2.09648
H         -4.65603        -6.29598         2.53594
O          0.05920         6.91285        -2.34402
H         -0.86155         7.16723        -2.65593
H         12.01977        -1.08219         0.53475
H         12.11886         1.23098         1.24398
H         10.38723         2.37605        -0.98486
H          9.76785         5.99534         0.23301
H          8.57230         7.74853        -1.02700
H          7.27407         9.93095        -0.97214
H          5.17380        11.12598        -0.78713
H          2.68980        11.15523        -0.79114
H          0.13090        11.13152        -0.08728
H         -2.36173        11.20294        -0.02032
H         -4.88054        11.19346         0.26187
H         -6.99316         9.98847         0.17207
H         -7.59968         7.42506         1.35638
H         -9.62844         5.58577         0.51712
H        -10.89210         3.44076         0.61897
H        -12.19301         1.18306         0.41024
H        -12.14701        -1.04657        -0.54014
H        -10.83197        -3.22458         0.30793
H         -9.75424        -5.49720        -0.25349
H         -8.59367        -7.67041        -0.18403
H         -7.18134        -9.63580        -1.19553
H         -5.08076       -10.58177        -1.86320
H         -2.53362       -10.95304        -1.11084
H         -0.17323       -11.18222        -0.69170
H          2.27656       -10.76501        -1.51569
H          4.76688       -10.52967        -2.01624
H          6.79026        -9.17511        -1.97583
H          8.10962        -7.41097        -1.08242
H          9.49887        -5.23454        -0.50245
H         10.74470        -3.17201        -0.04254
