         252
 CSIRO Nanostructure Databank - Neutral Graphene Oxide Data Set
C         30.32896        31.65874        -0.03969
C         30.36683        32.92632         0.00489
C         30.39315        36.07165         0.34138
C         30.32398        37.28517         0.57444
C         30.33349        40.37998         0.21769
C         30.23491        41.63066         0.14092
C         32.75853        28.81186        -0.45902
C         31.66342        29.39152        -0.20509
C         32.71815        31.53662        -0.16250
C         31.39645        30.76822        -0.06876
C         32.72434        33.04489        -0.29026
C         31.45388        33.81756        -0.08082
C         32.73968        35.97416         0.11913
C         31.49478        35.19387         0.09758
C         32.72795        37.35013         0.33257
C         31.51943        38.13449         0.92028
C         32.65536        40.33107         0.34356
C         31.46366        39.55656         0.45497
C         32.67114        41.71623         0.14262
C         31.35529        42.47121        -0.41614
C         32.62504        44.48987         0.19527
C         31.56799        43.87101         0.02422
C         35.56336        27.37372        -0.51361
C         35.35217        28.71462        -0.17028
C         34.03838        29.31454         0.08643
C         35.27703        31.60147         0.57261
C         33.97706        30.81963         0.29080
C         35.30798        33.05189         0.09962
C         34.02428        33.80474        -0.16925
C         35.21741        35.90603         0.33288
C         34.01738        35.25851         0.06579
C         35.31664        37.36826        -0.03099
C         33.96185        38.11580         0.02976
C         35.20559        40.35150         0.36332
C         33.94537        39.60635         0.17208
C         35.21480        41.71126         0.52738
C         33.90239        42.43854         0.58517
C         35.19852        44.63254         0.74879
C         33.88844        43.97236         0.71853
C         35.60846        45.95162         0.49810
C         37.94355        27.44744        -0.67150
C         36.67741        26.82712        -0.72538
C         37.83966        28.83688        -0.39987
C         36.57904        29.47352        -0.15781
C         37.75585        31.60094         0.35198
C         36.55774        30.88090         0.16601
C         37.67764        32.99685         0.90006
C         36.46134        33.80784         0.62795
C         37.56637        35.96182         1.29363
C         36.43201        35.18836         0.67413
C         37.56699        37.49262         1.23691
C         36.43520        38.15828         0.59187
C         37.76066        40.34491         0.28915
C         36.46918        39.59352         0.27443
C         37.75156        41.81554         0.59754
C         36.46937        42.43843         0.74794
C         38.19095        44.83513         0.53124
C         36.31557        43.81696         1.07167
C         37.97068        46.06063        -0.14424
C         36.67291        46.53024         0.13655
C         40.49566        24.74718        -0.89040
C         39.39381        25.41108        -0.87979
C         40.42940        27.48461        -0.30351
C         39.20216        26.76457        -0.70057
C         40.37458        28.84258        -0.16013
C         39.11922        29.64591        -0.50826
C         40.24146        31.74963         0.32499
C         39.02590        31.00043         0.18267
C         40.23145        33.17321         0.67094
C         38.94848        33.76532         1.11929
C         40.16628        36.03023         1.50720
C         38.89287        35.24466         1.44045
C         40.13920        37.53957         1.64957
C         38.81528        38.35651         1.54503
C         40.25557        40.31879         0.69455
C         39.01504        39.46947         0.48549
C         40.23091        41.66141         0.36984
C         39.02088        42.47792         0.42673
C         40.30840        44.45813        -0.50920
C         39.16601        43.88279         0.18212
C         40.30744        45.72340        -1.03070
C         39.13722        46.71485        -0.85021
C         39.98293        47.65612        -2.93620
C         39.00611        47.30840        -2.24983
C         43.06909        24.80351        -0.84441
C         41.74311        25.18862        -0.59015
C         42.99613        27.50794        -0.16467
C         41.69220        26.69283         0.08319
C         42.92025        28.99837         0.00065
C         41.56264        29.62240         0.39308
C         42.66190        31.87774        -0.17467
C         41.46052        31.10054         0.07969
C         42.64671        33.34815         0.20850
C         41.38362        33.92148         0.71183
C         42.70275        36.09859         1.08744
C         41.36528        35.43885         0.75442
C         42.71234        37.43849         1.33906
C         41.45353        38.23200         1.47521
C         42.72598        40.27274         0.93859
C         41.50792        39.63943         1.00001
C         42.77429        41.67965         0.50195
C         41.52954        42.22492        -0.18268
C         42.88279        44.37195        -0.66778
C         41.58519        43.73411        -0.31408
C         42.85916        45.70001        -1.37146
C         41.48606        46.09321        -1.88420
C         42.64014        47.64218        -3.36448
C         41.31663        47.07200        -3.05620
C         44.09838        25.50759        -0.95561
C         45.19388        27.72720        -1.37199
C         44.19581        26.93180        -0.89497
C         45.12760        29.22302        -1.31346
C         44.00905        29.85854        -0.55658
C         45.09745        32.15559        -0.85132
C         43.95732        31.21129        -0.43581
C         45.19646        33.32400         0.14265
C         43.94435        33.87503         0.78473
C         45.17444        35.96982         1.25234
C         43.97417        35.37623         0.98519
C         45.23802        37.33266         1.91472
C         43.96398        38.16249         1.69931
C         45.29900        40.47526         1.45124
C         43.97774        39.66428         1.48034
C         45.35081        41.60259         0.41806
C         44.08675        42.32869         0.17953
C         45.39247        44.17781        -0.98690
C         44.08141        43.43572        -0.87635
C         45.38437        45.37299        -2.00343
C         44.13699        46.24338        -1.96808
C         43.73453        47.13766        -3.07347
C         47.42060        28.01072        -2.37115
C         46.44451        27.37198        -1.97136
C         47.68917        29.49723        -2.25067
C         46.34555        30.06667        -1.66152
C         47.57481        31.83162        -0.43544
C         46.41443        31.38115        -0.96613
C         47.65157        33.09807         0.38081
C         46.37407        33.87417         0.50604
C         47.70993        35.94352         1.11688
C         46.43558        35.12434         1.37452
C         47.73323        37.29908         1.20324
C         46.54084        38.10150         1.61556
C         47.79075        40.25385         0.88312
C         46.55309        39.59660         1.39221
C         47.80043        41.60623         0.49687
C         46.53554        42.25582         0.14988
C         47.85254        44.23723        -0.62250
C         46.55225        43.57688        -0.50926
C         47.68992        45.48276        -1.29697
C         46.69764        46.06970        -1.75681
C         50.26747        29.53498        -1.72505
C         48.87203        29.80385        -1.36500
C         50.13810        31.77104        -0.25239
C         48.83986        31.03096        -0.44964
C         50.05785        33.13145        -0.34376
C         48.85044        33.93040        -0.03522
C         50.22909        35.82741         1.33533
C         48.97884        35.28404         0.60146
C         50.25261        37.35839         1.30362
C         49.00340        38.04845         0.79451
C         50.21041        40.25061         1.13770
C         49.00747        39.54551         1.05240
C         50.26323        41.62374         0.72969
C         49.04851        42.27681         0.34132
C         50.35390        44.14586        -0.23966
C         49.03985        43.63140        -0.19692
C         51.35663        29.97570        -1.34678
C         52.59879        31.89769        -0.08658
C         51.45922        30.92729        -0.16870
C         52.82973        33.04686         0.30945
C         51.99771        34.22083         0.24493
C         52.53590        36.06787         1.87153
C         51.68387        35.23025         1.11306
C         52.39837        37.22997         2.33182
C         51.33327        38.06267         1.75081
C         52.62843        40.22790         1.23979
C         51.39538        39.55712         1.83205
C         52.63815        41.43692         0.93563
C         51.56182        42.29186         0.57275
C         51.44455        43.60182         0.08518
O         33.84528        38.96042        -1.18370
O         45.28099        29.89539        -2.62757
O         42.52875        32.98452        -1.17721
O         41.27960        45.65082        -3.28870
O         40.88071        37.99931         2.81734
O         37.17079        40.03200        -1.02746
O         44.82637        32.72167        -2.10052
O         43.44080        28.13559         1.08648
O         32.77958        32.18109        -1.47204
O         38.28699        33.05270         2.22482
O         33.78513        29.89570         1.40819
O         34.94566        33.38929        -1.25208
O         42.37075        44.47772         0.68387
O         39.63830        35.41260         2.69842
O         46.85341        39.01139         2.71248
O         48.81492        35.16024        -0.85001
O         37.40028        44.49692         1.64337
O         51.07402        34.00093        -0.78219
O         43.42112        42.55558         1.47123
O         37.14611        36.71853         2.45672
O         43.74948        39.08898         2.80792
O         48.68539        29.66023         0.05433
O         43.66565        46.71709        -0.69452
O         33.68930        43.12523         1.88328
O         35.34199        31.76236         2.01260
H         35.13161        30.89085         2.42115
O         39.59964        47.74911         0.01455
H         38.84172        48.31674         0.26667
O         45.28946        37.02443         3.33567
H         45.27254        37.89307         3.80400
O         39.29234        38.75742        -0.74161
H         38.59571        39.02167        -1.39526
O         47.89816        30.11669        -3.49454
H         47.05514        30.08719        -3.99746
O         41.58337        26.45914         1.48326
H         42.46292        26.20702         1.83569
O         43.89487        42.75706        -2.14711
H         44.20933        43.35025        -2.87189
O         43.94493        33.32201         2.13915
H         44.75832        33.65071         2.59724
O         46.46342        34.66295         2.76515
H         46.24103        35.44953         3.33120
O         35.71233        37.29826        -1.43980
H         35.30320        38.08062        -1.88706
O         41.44455        29.55756         1.83616
H         41.92760        28.74741         2.12861
O         38.56591        39.01815         2.78465
H         38.55553        38.34159         3.49574
O         31.68552        38.16645         2.34310
H         31.54877        37.26610         2.70480
O         31.34681        42.41303        -1.81734
H         31.13123        41.50416        -2.11079
O         49.92377        35.43545         2.69600
H         50.61702        35.80973         3.28256
O         45.39017        41.16219         2.71703
H         44.60411        41.75452         2.78670
O         51.33283        39.92196         3.20661
H         51.95624        39.34972         3.70331
O         48.01116        32.65184         1.72308
H         47.63467        33.28295         2.38375
O         41.58218        41.68521        -1.53516
H         40.73564        41.87865        -1.98936
O         41.07777        35.81276        -0.63316
H         41.69142        35.32330        -1.22463
O         39.28153        29.96483        -1.93663
H         38.47504        30.43199        -2.24236
O         51.39197        30.17729         1.01467
H         52.08436        29.48620         1.00914
O         45.39603        44.79288        -3.31595
H         46.28123        44.40809        -3.48865
O         49.03467        38.02027        -0.66673
H         49.01674        37.08540        -0.97612
