         232
 CSIRO Nanostructure Databank - Neutral Graphene Oxide Data Set
C        -10.95517         0.56969        -0.91737
C         -9.84500         1.39796        -0.47229
C         -8.70317         0.74894         0.13478
C         -7.52379         1.44113         0.37033
C         -6.25049         0.74162         0.48809
C         -5.03953         1.42628         0.52459
C         -3.79694         0.72271         0.31576
C         -2.54927         1.49315         0.03578
C         -1.26638         0.81209        -0.35025
C          0.01988         1.67599        -0.40089
C          1.33662         0.88174        -0.25406
C          2.53653         1.46486         0.46565
C          3.76660         0.59360         0.73266
C          5.11636         1.26588         0.87471
C          6.29875         0.64827         0.22144
C          7.59788         1.36319         0.22639
C          8.86912         0.64207        -0.03026
C          9.97104         1.39183        -0.38638
C         11.16996         0.68696        -0.82019
C         -9.81834         2.74265        -0.79281
C         -8.78950         3.62041        -0.23907
C         -7.57009         2.91087         0.41150
C         -6.30316         3.69424         0.58611
C         -5.01352         2.90467         0.87116
C         -3.78587         3.59879         0.31375
C         -2.48697         2.90515         0.46654
C         -1.29912         3.59750         0.63911
C         -0.04426         2.93664         0.44231
C          1.16372         3.59332         0.74617
C          2.36935         2.86484         0.99462
C          3.43015         3.59800         1.53392
C          5.33182         2.44979         1.50079
C          6.48067         3.37070         1.32133
C          7.79547         2.68034         0.94737
C          8.78265         3.50635         0.14315
C          9.86173         2.84017        -0.41940
C         -8.61233         4.99027        -0.75444
C         -7.46613         5.72513        -0.57800
C         -6.29168         5.14581         0.12916
C         -5.00346         5.83491        -0.08863
C         -3.75731         5.05566         0.08650
C         -2.58065         5.83004         0.57777
C         -1.33188         5.04693         1.01233
C         -0.02683         5.74079         1.12212
C          1.17862         5.01454         0.99321
C          2.41621         5.71696         1.07693
C          3.63787         4.98654         1.28202
C          4.92530         5.60265         1.09598
C          6.25811         4.87059         1.09873
C          7.40272         5.56963         0.42221
C          8.57007         4.90623         0.02893
C         -7.32319         7.06238        -1.11640
C         -6.11952         7.74561        -1.11873
C         -4.91769         7.07168        -0.65446
C         -3.55023         7.68687        -0.91877
C         -2.57874         7.24313         0.15679
C         -1.70614         8.14830         0.67446
C          0.07003         7.12082         1.34877
C          1.22977         7.87183         1.03769
C          2.43252         7.13153         1.02033
C          3.72372         7.80044         1.01187
C          4.94581         6.99167         0.82808
C          6.12053         7.67590         0.37142
C          7.29543         6.95444         0.14776
C         -5.97585         9.09547        -1.62405
C         -4.79225         9.78025        -1.57267
C         -3.58209         9.20509        -1.02762
C         -2.47341         9.96674        -0.72318
C         -1.35679         9.39731         0.02249
C         -0.06643         9.89990         0.07966
C          1.16414         9.25681         0.56005
C          2.36911         9.86843         0.24129
C          3.67673         9.30091         0.58419
C          4.91257         9.80608        -0.03498
C          6.04736         9.06148        -0.05719
C        -10.95784        -0.78580        -0.79492
C         -9.85390        -1.50481        -0.20760
C         -8.78235        -0.70750         0.51265
C         -7.44516        -1.40085         0.47219
C         -6.24262        -0.70963         0.47236
C         -4.97007        -1.41108         0.38511
C         -3.76739        -0.65609         0.14995
C         -2.58524        -1.37052        -0.50281
C         -1.22003        -0.68152        -0.33147
C         -0.04260        -1.34183        -0.47997
C          1.23084        -0.54423        -0.82194
C          2.55787        -1.33296        -0.65357
C          3.76184        -0.75357         0.04841
C          5.03005        -1.49321        -0.19002
C          6.30820        -0.83708         0.15118
C          7.61733        -1.56347         0.06280
C          8.96666        -0.84542         0.18735
C         10.06916        -1.51071        -0.60512
C         11.20149        -0.67290        -0.94332
C         -9.82039        -2.87766        -0.19347
C         -8.67550        -3.61811         0.28558
C         -7.48100        -2.84864         0.67396
C         -6.11744        -3.60231         0.68364
C         -4.90409        -2.81010         0.42957
C         -3.66119        -3.50487         0.19602
C         -2.50791        -2.84237        -0.15970
C         -1.36197        -3.61623        -0.78444
C          0.00659        -2.81140        -0.98693
C          1.24286        -3.53460        -0.43207
C          2.55119        -2.84409        -0.68783
C          3.79593        -3.58997        -0.41519
C          5.01133        -2.88783        -0.35076
C          6.31093        -3.62920        -0.29018
C          7.55312        -2.87309        -0.71223
C          8.83912        -3.67282        -0.64012
C         10.04822        -2.86917        -0.79514
C         -8.62652        -4.99897         0.29459
C         -7.37825        -5.72216         0.36923
C         -6.16843        -5.02150         0.35667
C         -4.90587        -5.69388        -0.08527
C         -3.64768        -4.99605         0.50662
C         -2.41113        -5.72961         0.04088
C         -1.22706        -5.03337        -0.23128
C         -0.01073        -5.75497        -0.21029
C          1.26553        -5.00702        -0.16813
C          2.51966        -5.79325        -0.33559
C          3.76782        -5.04888        -0.62736
C          5.05313        -5.81594        -0.67006
C          6.33407        -5.10557        -0.39360
C          7.58266        -5.87044        -0.80650
C          8.83651        -5.03392        -0.63350
C         -7.35216        -7.15829         0.30450
C         -6.14862        -7.86785         0.32411
C         -4.89621        -7.17435         0.19421
C         -3.68569        -7.85785         0.24023
C         -2.42379        -7.14336         0.12193
C         -1.21076        -7.86240         0.04800
C          0.00170        -7.14633        -0.03755
C          1.28978        -7.90295         0.18344
C          2.52083        -7.14997        -0.27047
C          3.74175        -7.97374        -0.67550
C          5.05043        -7.26485        -0.41036
C          6.21159        -7.92221        -0.11553
C          7.57361        -7.22835        -0.06746
C         -6.11372        -9.30351         0.46912
C         -4.93039        -9.98316         0.49954
C         -3.66585        -9.29751         0.37986
C         -2.46085        -9.98859         0.36666
C         -1.20496        -9.32218         0.15001
C         -0.03016       -10.02275        -0.01090
C          1.23489        -9.31994        -0.43673
C          2.51047       -10.03634        -0.05635
C          3.70160        -9.38523        -0.13173
C          4.96241       -10.01601         0.21425
C          6.14583        -9.34154         0.18991
O          1.07543        -0.28124        -2.23312
H          0.83551        -1.17055        -2.64416
O          3.83814         8.89020         1.97509
O          7.96155        -7.00405         1.28605
H          7.75896        -7.80451         1.81073
O         -9.18446        -0.70764         1.92902
H         -8.97410        -1.59176         2.29983
O         -1.02016         7.82707         1.85259
O         -3.64709        -5.00937         1.89301
O         -4.78412        -5.50236        -1.52767
H         -5.47250        -6.04603        -1.96505
O          8.42735         2.33849         2.20395
H          8.33361         3.11911         2.79480
O          9.39495        -0.98719         1.57460
H          8.57950        -0.99597         2.12932
O          7.47946        -6.18592        -2.21444
H          7.47077        -5.34767        -2.72320
O          1.24168        -4.01205         0.94742
O          2.39255         1.58431        -0.99294
O         -2.88857        -1.29727        -1.92650
H         -2.52029        -2.11860        -2.34324
O         -3.12248         7.19000        -2.21755
H         -2.29163         7.64692        -2.46356
O          1.43076        -8.10394         1.61970
H          1.31078        -7.23655         2.06152
O          1.15804        -9.20849        -1.87958
H          2.03239        -8.87037        -2.20677
O          0.07509         2.23073        -1.73743
H          0.37887         1.49465        -2.32700
O          3.51319        -0.58774         1.53054
O          3.65365        -8.08576        -2.14116
H          3.83983        -7.18066        -2.49887
O         -4.81349         2.93355         2.31035
H         -5.28411         3.72752         2.65718
O          7.38780        -2.53106        -2.11785
H          6.52134        -2.08523        -2.23749
O          2.81882        -2.03926        -1.88985
O          4.41153        -5.42598        -1.94178
O          6.91424        -1.52516         1.33214
O         -1.87648        -3.82935        -2.13292
H         -1.10641        -3.59302        -2.73852
O          0.23385        -2.70486        -2.37190
O         -8.64644         3.45512         1.21287
O         -2.33364         5.47580         1.97930
O          6.65288         4.32091         2.41312
O         -2.17426         1.31028        -1.38219
O         -6.84228        -3.27459         1.91362
O         -6.48513         4.77796         1.54793
O          4.34632         2.93867         2.34522
O         -3.71365         4.12627        -1.07270
O          6.43148        -4.46194         0.90847
O          6.74907         1.36565        -0.98828
H         12.10033        -1.16034        -1.35095
H         12.04876         1.28266        -1.10728
H         10.65188         3.41788        -0.92426
H          9.34231         5.50343        -0.48253
H          8.16268         7.46723        -0.29521
H          6.95918         9.48710        -0.50271
H          4.89972        10.80583        -0.49412
H          2.36120        10.80301        -0.34134
H          0.10815        10.85571        -0.44324
H         -2.46117        11.04022        -0.97066
H         -4.76454        10.83380        -1.89159
H         -6.87361         9.59868        -2.01327
H         -8.21760         7.54118        -1.54402
H         -9.43795         5.42023        -1.34345
H        -10.60191         3.17345        -1.43420
H        -11.80818         1.07644        -1.39246
H        -11.80618        -1.36977        -1.18371
H        -10.66086        -3.44547        -0.62336
H         -9.53927        -5.57262         0.07200
H         -8.30529        -7.70666         0.34073
H         -7.06670        -9.84393         0.56735
H         -4.92368       -11.07761         0.61033
H         -2.46441       -11.08496         0.46836
H         -0.03948       -11.12368         0.03401
H          2.47155       -11.08217         0.28885
H          4.94210       -11.07758         0.50341
H          7.08171        -9.86501         0.43705
H          8.32332        -7.91214        -0.56645
H          9.79943        -5.56905        -0.63995
H         10.95069        -3.37371        -1.17682
