         204
 CSIRO Nanostructure Databank - Neutral Graphene Oxide Data Set
C        -11.11799         0.69232         0.39141
C         -9.93559         1.41271        -0.23396
C         -8.64590         0.71028         0.20803
C         -7.39084         1.38397         0.33396
C         -6.16233         0.69437         0.12859
C         -4.94859         1.44727         0.09113
C         -3.70496         0.72026         0.00664
C         -2.48901         1.47069         0.21252
C         -1.27908         0.70572         0.52628
C          0.04371         1.47625         0.51653
C          1.26342         0.71624         0.24658
C          2.44937         1.43102        -0.12361
C          3.64089         0.66487        -0.53580
C          4.96008         1.40488        -0.57845
C          6.21197         0.65727        -0.35164
C          7.42184         1.38188        -0.22071
C          8.65592         0.67213        -0.08041
C          9.89344         1.40825        -0.02216
C         11.12487         0.66142         0.08266
C        -10.00155         2.93839        -0.27152
C         -9.13936         3.80564         0.35691
C         -7.30151         2.72929         0.72169
C         -6.17413         3.54364         0.46265
C         -4.96165         2.85073         0.16943
C         -3.71419         3.61243        -0.18181
C         -2.46309         2.85298         0.18618
C         -1.22628         3.59345         0.24215
C          0.01208         2.90837         0.24218
C          1.23423         3.58311         0.02398
C          2.46356         2.83741        -0.15513
C          3.69998         3.56636        -0.34259
C          4.95158         2.86774        -0.39928
C          6.19245         3.53093        -0.34790
C          7.41844         2.81916        -0.25301
C          8.66394         3.54486        -0.16660
C          9.88089         2.79945        -0.06626
C         -8.76563         5.15929         0.05965
C         -7.48131         5.71702         0.31705
C         -6.26273         4.97476         0.50204
C         -4.97042         5.68771         0.64619
C         -3.70055         5.02627         0.33640
C         -2.49964         5.72822         0.31681
C         -1.24244         5.01454         0.17757
C         -0.01346         5.71690         0.08842
C          1.21876         5.00304        -0.02224
C          2.45660         5.71078        -0.14213
C          3.66764         4.98198        -0.30262
C          4.91359         5.74047        -0.47190
C          6.23248         4.99539        -0.49913
C          7.48583         5.73238        -0.19450
C          8.68197         4.95211        -0.13260
C         -7.38309         7.15875         0.14073
C         -6.21948         7.88804         0.22897
C         -4.95179         7.22713         0.58781
C         -3.68055         7.90250         0.30108
C         -2.47417         7.17891         0.31748
C         -1.23429         7.87105         0.14262
C         -0.00487         7.15347         0.06619
C          1.22925         7.85278        -0.04025
C          2.45598         7.13626        -0.12923
C          3.70821         7.85357        -0.11071
C          4.91302         7.17027        -0.15126
C          6.18807         7.86494         0.25075
C          7.45733         7.10156        -0.03542
C         -6.15131         9.30492        -0.05489
C         -4.96421         9.97768        -0.09877
C         -3.68527         9.30700         0.04528
C         -2.46813         9.98978        -0.05586
C         -1.22915         9.29846         0.01930
C          0.01716         9.98261        -0.05758
C          1.23336         9.29367        -0.05709
C          2.49789         9.98585        -0.11274
C          3.69755         9.30833        -0.10596
C          4.98578         9.98181        -0.24776
C          6.15889         9.31378        -0.17309
C        -11.08818        -0.65324         0.52217
C         -9.87675        -1.43134         0.25712
C         -8.63328        -0.69016         0.15941
C         -7.39458        -1.42220         0.05962
C         -6.16139        -0.71026        -0.00535
C         -4.92795        -1.41044        -0.19253
C         -3.68777        -0.67162        -0.12961
C         -2.43449        -1.41209        -0.08841
C         -1.24012        -0.72856         0.24685
C         -0.00333        -1.41286         0.32570
C          1.22902        -0.67074         0.36066
C          2.54556        -1.36740         0.52483
C          3.61913        -0.85907        -0.44956
C          4.96676        -1.48794        -0.11092
C          6.19568        -0.75610        -0.19793
C          7.42959        -1.46131        -0.00740
C          8.65976        -0.74074        -0.00374
C          9.90433        -1.46393         0.10778
C         11.13074        -0.70172         0.13660
C         -9.85614        -2.81034         0.23260
C         -8.63398        -3.55512         0.03470
C         -7.38855        -2.83020        -0.06531
C         -6.15946        -3.53024        -0.32166
C         -4.93788        -2.79714        -0.38905
C         -3.66458        -3.42857        -0.89882
C         -2.41347        -2.80572        -0.30000
C         -1.20055        -3.53261        -0.11191
C          0.00146        -2.83363         0.20610
C          1.25405        -3.55089         0.33569
C          2.44563        -2.85872         0.42918
C          3.73470        -3.54023         0.57183
C          4.98817        -2.83677         0.22531
C          6.21226        -3.58564         0.26548
C          7.43652        -2.88033         0.14478
C          8.68322        -3.60169         0.18971
C          9.90271        -2.85379         0.17431
C         -8.62199        -4.94307        -0.04545
C         -7.41108        -5.67935        -0.29383
C         -6.16659        -4.95117        -0.46225
C         -4.94855        -5.68095        -0.65855
C         -3.67664        -4.95277        -0.86387
C         -2.39098        -5.70279        -0.58766
C         -1.17428        -4.96994        -0.19956
C         -0.01556        -5.71163         0.11520
C          1.24580        -5.00941         0.31704
C          2.43346        -5.70916         0.37340
C          3.72671        -5.04140         0.56283
C          4.98954        -5.76055         0.29604
C          6.21012        -5.02039         0.31020
C          7.44914        -5.73783         0.24080
C          8.66758        -5.00620         0.23128
C         -7.42296        -7.06352        -0.39091
C         -6.21879        -7.83289        -0.85363
C         -4.92769        -7.08346        -0.63000
C         -3.70369        -7.81597        -0.46132
C         -2.46930        -7.14539        -0.31988
C         -1.26444        -7.85397        -0.07603
C         -0.05564        -7.13735         0.14206
C          1.16744        -7.91828         0.36628
C          2.46934        -7.17881         0.41194
C          3.68338        -7.85339        -0.18539
C          4.98119        -7.14438         0.13550
C          6.21149        -7.86631         0.10371
C          7.41926        -7.16176         0.18624
C         -6.17424        -9.25592        -0.36737
C         -5.00866        -9.91245        -0.18537
C         -3.72297        -9.24381        -0.28390
C         -2.52257        -9.95049        -0.15194
C         -1.27087        -9.29311        -0.08511
C         -0.02960       -10.01456        -0.07414
C          1.18795        -9.36586         0.06011
C          2.47095       -10.02667         0.06252
C          3.67606        -9.34520         0.04606
C          4.95787       -10.00290         0.06327
C          6.14408        -9.31636         0.05494
O         -8.37976         3.25909         1.42137
O        -10.01935         1.08421        -1.66879
H        -10.04377         0.10643        -1.74984
O         -2.87721        -5.45270        -1.99001
O          1.91178        -7.69039         1.65208
O          4.21090         1.05682        -1.82775
O          6.13687         7.90337         1.73968
H          5.38615         8.48545         1.98729
O          5.61716         5.44696        -1.75551
O         -3.62761        -3.04244        -2.31205
H         -3.09458        -3.73730        -2.76760
O         -4.94396         6.51704         1.86427
O         -6.36631        -7.93704        -2.33025
H         -6.29077        -7.02695        -2.68998
O          3.81742        -4.29683         1.83901
O         -0.61783         1.09734         1.77213
O          3.50244        -7.66945        -1.63523
H          4.26290        -8.09567        -2.08460
O         -3.71114         3.73973        -1.65586
H         -3.74367         2.83167        -2.02624
O          3.24956        -1.35396        -1.75725
H          3.67499        -0.75506        -2.41403
O          3.04964        -1.04124         1.85453
H          2.46950        -1.47186         2.51716
H         12.08278        -1.24752         0.21433
H         12.07221         1.21973         0.11590
H         10.83240         3.34993        -0.01234
H          9.64393         5.46821         0.00680
H          8.40321         7.63335         0.15410
H          7.11225         9.84943        -0.29596
H          4.97642        11.06136        -0.46422
H          2.49153        11.08547        -0.16440
H          0.01806        11.08154        -0.11709
H         -2.46656        11.07986        -0.20562
H         -4.95807        11.05896        -0.30123
H         -7.09403         9.84378        -0.23311
H         -8.31230         7.69158        -0.11661
H         -9.50931         5.81577        -0.41921
H        -10.61582         3.32990        -1.09704
H        -12.04007         1.25140         0.60866
H        -11.97947        -1.19628         0.87351
H        -10.79463        -3.37250         0.35602
H         -9.56421        -5.50339         0.04907
H         -8.37896        -7.60182        -0.30113
H         -7.13170        -9.78759        -0.25927
H         -5.01120       -10.97661         0.09699
H         -2.55252       -11.04860        -0.08376
H         -0.05699       -11.10652        -0.21105
H          2.48248       -11.12858         0.07997
H          4.97359       -11.10337         0.09385
H          7.09120        -9.87607         0.06388
H          8.37067        -7.71494         0.17718
H          9.62128        -5.55539         0.22752
H         10.85908        -3.39529         0.23295
