         232
 CSIRO Nanostructure Databank - Neutral Graphene Oxide Data Set
C        -11.14910         0.77788        -0.09008
C         -9.96496         1.52714         0.41628
C         -8.64936         0.77268         0.44081
C         -7.40113         1.53100         0.50959
C         -6.15131         0.76664         0.33879
C         -4.86627         1.49392         0.46752
C         -3.64789         0.76054         0.96604
C         -2.41502         1.41612         0.38622
C         -1.29608         0.70465         0.07258
C         -0.21979         1.40446        -0.76583
C          1.09336         0.53193        -0.98130
C          2.40711         1.28604        -0.70596
C          3.65960         0.51888        -1.07018
C          4.99070         1.24280        -1.29056
C          6.17306         0.60857        -0.53983
C          7.35670         1.33085        -0.45941
C          8.68185         0.67110        -0.14480
C          9.61073         1.53982         0.69137
C         10.66436         0.87745         1.44153
C         -9.85535         2.98789         0.39693
C         -8.65093         3.63956         0.65614
C         -7.41262         2.87748         0.77532
C         -6.14450         3.57964         1.09515
C         -4.86699         2.93098         0.80388
C         -3.66475         3.60937         0.74597
C         -2.52579         2.88961         0.03009
C         -1.18277         3.58404         0.06325
C         -0.02159         2.85683        -0.30051
C          1.19333         3.54012        -0.48299
C          2.46004         2.77274        -0.58756
C          3.73212         3.46038        -0.93145
C          4.89483         2.76498        -1.12744
C          6.19420         3.46425        -1.34502
C          7.43046         2.74114        -0.87858
C          8.58195         3.56629        -0.29634
C          9.54331         2.89400         0.60310
C         -8.55959         5.07641         0.57075
C         -7.36348         5.78804         0.67240
C         -6.11922         5.09997         1.08211
C         -4.80843         5.77261         0.95304
C         -3.61306         5.02894         0.92558
C         -2.23709         5.65465         1.10677
C         -1.11206         4.97927         0.32631
C          0.06305         5.67436         0.03279
C          1.23345         4.97180        -0.42820
C          2.41412         5.66717        -0.80244
C          3.63184         4.92897        -1.18951
C          4.89461         5.70443        -1.50530
C          6.21293         4.97729        -1.38051
C          7.30759         5.68078        -0.65968
C          8.38089         5.01112        -0.14377
C         -7.27201         7.16885         0.36248
C         -6.05014         7.86028         0.42838
C         -4.84028         7.18669         0.77686
C         -3.61345         7.95594         0.92229
C         -2.25860         7.17730         1.00154
C         -1.09309         7.88533         0.53283
C          0.21034         7.12865         0.41915
C          1.19086         7.87706        -0.46132
C          2.36558         7.12642        -1.04152
C          3.60410         7.92712        -1.38608
C          4.97525         7.23526        -1.58893
C          6.06932         7.82903        -0.72227
C          7.15672         7.09062        -0.36474
C         -6.00200         9.27887         0.14034
C         -4.83540         9.98521         0.14730
C         -3.57800         9.35605         0.46948
C         -2.36868        10.00815         0.38718
C         -1.11508         9.29437         0.41391
C          0.08648        10.00646         0.17951
C          1.28133         9.34460        -0.20117
C          2.45976        10.02841        -0.40445
C          3.63715         9.38918        -1.00747
C          4.94549        10.01122        -0.69319
C          6.04653         9.26014        -0.47764
C        -11.10353        -0.53351        -0.40541
C         -9.82945        -1.29967        -0.53076
C         -8.56481        -0.59274        -0.15724
C         -7.33587        -1.36680         0.13058
C         -6.17487        -0.71555         0.44663
C         -4.91056        -1.42147         0.64835
C         -3.73553        -0.73336         0.75531
C         -2.43582        -1.42007         0.87743
C         -1.22394        -0.71423         0.39233
C         -0.02828        -1.40207         0.34469
C          1.17821        -0.74683        -0.15123
C          2.37611        -1.37917         0.02504
C          3.63969        -0.92092        -0.62572
C          4.96931        -1.67891        -0.46939
C          6.15141        -0.77059        -0.15146
C          7.32509        -1.38638         0.36160
C          8.53191        -0.70005         0.43634
C          9.72263        -1.34203         0.97809
C         10.76554        -0.47479         1.50735
C         -9.79674        -2.78483        -0.50514
C         -8.64271        -3.48978        -0.39671
C         -7.33532        -2.80087        -0.23618
C         -6.08746        -3.57475         0.03642
C         -5.05166        -2.91538         0.94900
C         -3.70725        -3.75429         1.07109
C         -2.43360        -2.92098         0.93830
C         -1.18392        -3.60051         0.56896
C          0.01138        -2.84942         0.54740
C          1.25033        -3.52580         0.64015
C          2.37836        -2.54416         0.97876
C          3.72298        -3.15247         1.12274
C          4.89315        -2.82816         0.52431
C          6.11123        -3.61497         0.72338
C          7.36339        -2.80681         0.91581
C          8.64659        -3.49249         0.43298
C          9.80412        -2.70928         1.00981
C         -8.68994        -5.00742        -0.30729
C         -7.34495        -5.71478        -0.35361
C         -6.13927        -5.05712        -0.02373
C         -4.90673        -5.74756        -0.03774
C         -3.65068        -5.04736         0.25512
C         -2.43242        -5.67621         0.09604
C         -1.16016        -4.98408         0.28897
C          0.09278        -5.62644         0.12891
C          1.29491        -4.93857         0.48730
C          2.53807        -5.71160         0.55240
C          3.70020        -5.29706         1.16055
C          5.00255        -5.84382         0.84271
C          6.18146        -4.99710         0.84411
C          7.47737        -5.69320         0.75155
C          8.65244        -4.97866         0.68381
C         -7.32258        -7.07730        -0.67317
C         -6.09995        -7.77212        -0.78579
C         -4.90222        -7.08995        -0.48307
C         -3.61163        -7.72553        -0.78184
C         -2.39524        -7.17955        -0.07296
C         -1.13892        -7.73120        -0.71235
C          0.12910        -6.97285        -0.51372
C          1.41460        -7.73599        -0.59705
C          2.63299        -7.05603        -0.07758
C          3.79662        -7.90429         0.34320
C          5.07492        -7.18141         0.49935
C          6.33416        -7.85922         0.36444
C          7.49274        -7.13265         0.58015
C         -6.04365        -9.18678        -1.12474
C         -4.87744        -9.86870        -1.25770
C         -3.57468        -9.18167        -1.20462
C         -2.30087        -9.90360        -1.04069
C         -1.10126        -9.21940        -0.89208
C          0.15071        -9.88775        -0.88635
C          1.39189        -9.22903        -0.68861
C          2.58708        -9.94006        -0.61135
C          3.81647        -9.34983        -0.04865
C          5.15509        -9.95761        -0.22510
C          6.30462        -9.27183         0.00076
O          5.29209        -2.27759        -1.74475
H          4.95336        -1.66500        -2.44055
O          4.06682         5.22027        -2.59166
O          8.61297         3.06444        -1.68125
O          2.37933        -7.11450        -1.52049
O          2.57093         1.87209         0.61640
O         -5.70100        -2.91925         2.24656
H         -5.18452        -3.53975         2.82091
O         -2.23995        -2.11362         2.17748
O         -3.63978         0.95298         2.41188
H         -2.93331         0.38549         2.78810
O         -2.40593        -7.71410         1.28849
H         -3.05645        -7.20210         1.81520
O         -3.44379        -8.06194        -2.17883
O         -8.96511        -0.68379        -1.56681
O          1.10518         0.14261        -2.35570
H          0.29374         0.57124        -2.75723
O         -9.45330         0.88339         1.65515
O         -3.64863        -4.27551         2.43797
H         -3.10338        -3.63485         2.95475
O         -0.80637         1.60304        -2.04318
O          5.41280         7.50749        -2.93320
H          4.77981         7.06685        -3.54137
O          8.69324        -3.34814        -1.01433
H          9.57326        -3.63920        -1.33007
O          7.49321        -2.68642         2.36725
H          6.60956        -2.47945         2.73784
O         -2.93728         2.96927        -1.36515
H         -2.24565         2.44522        -1.88079
O          3.39269         8.94149        -2.40125
O         -6.22593         4.34810         2.33812
O          0.78722         7.11798         1.76656
H          0.15030         6.64516         2.34972
O          9.36331         0.48194        -1.43206
H          9.32583         1.35684        -1.89449
O         -9.56225        -5.53147        -1.31343
H         -9.20975        -5.26635        -2.18795
O         -1.87273         5.37981         2.50103
H         -2.45214         5.95440         3.05396
O          2.04799        -2.00972         2.30300
H          2.17325        -2.74406         2.94277
O          5.35385         1.06178        -2.68243
H          4.55189         1.18077        -3.23415
O          6.47540         4.19308        -2.57672
O         -2.89924         7.75492         2.19153
O          3.53843        -8.90475         1.37477
O          3.44123        -0.53799        -2.03303
O         -0.60496        -6.95601        -1.80732
O          1.17642         7.49875        -1.85366
O         -6.30335        -3.02831        -1.29686
O         -5.35227         1.16741        -0.86129
O          3.71015        -4.20951         2.05787
H         11.61518        -0.94259         2.02601
H         11.42903         1.51280         1.91364
H         10.24195         3.52390         1.17596
H          9.10940         5.56375         0.46939
H          7.97853         7.57668         0.18400
H          6.97867         9.73025        -0.12919
H          4.96765        11.09586        -0.50963
H          2.51732        11.09983        -0.15954
H          0.07235        11.10594         0.20228
H         -2.34559        11.07829         0.13198
H         -4.83266        11.05408        -0.11112
H         -6.94591         9.78188        -0.11500
H         -8.18129         7.71485         0.06948
H         -9.47782         5.63173         0.32293
H        -10.73909         3.58079         0.11537
H        -12.11426         1.30767        -0.11166
H        -12.03234        -1.05364        -0.68789
H        -10.75350        -3.32687        -0.56787
H         -9.16413        -5.27203         0.68178
H         -8.26784        -7.58815        -0.90753
H         -6.99959        -9.72423        -1.21415
H         -4.88839       -10.95760        -1.41585
H         -2.29903       -11.00184        -1.11764
H          0.15653       -10.98291        -1.00069
H          2.57804       -11.02345        -0.81060
H          5.20308       -11.00449        -0.56194
H          7.27055        -9.78073        -0.13867
H          8.47103        -7.63466         0.52750
H          9.59410        -5.51983         0.49238
H         10.70490        -3.21514         1.39000
