         429
 CSIRO Nanostructure Databank - Neutral Graphene Oxide Data Set
C          1.43739         3.46611         1.48494
C          0.34434         4.19471         1.93649
C          1.05745         6.13382         0.65434
C          0.18637         5.54287         1.58833
C          1.01852         7.62030         0.44883
C         -0.21785         8.38095         0.79073
C          1.03036        10.48127         1.26744
C         -0.21530         9.71499         0.97782
C          1.09682        11.96295         1.13199
C          0.00659        12.63757         0.47240
C          1.06382        14.82373         0.79083
C          0.05862        13.96333         0.16703
C          1.24097        16.23183         0.34504
C          0.24103        16.87311        -0.40866
C          1.49031        18.95192        -0.43120
C          0.37352        18.20225        -0.80909
C          1.74527        20.34083        -0.99068
C          0.50220        21.07284        -1.40892
C          1.61820        23.22426        -1.06425
C          0.49062        22.42170        -1.48144
C          1.68494        24.59176        -1.39892
C          0.73637        25.24611        -2.24905
C          1.97831        27.35164        -2.11152
C          0.85884        26.57577        -2.55890
C          2.09237        28.77239        -2.41502
C          1.13038        29.42014        -3.21404
C          2.03880        31.62432        -2.68152
C          1.11547        30.79971        -3.36123
C          1.98570        33.06073        -2.79770
C          1.12628        33.69241        -3.69024
C          2.12104        35.88773        -3.26285
C          1.14789        35.08236        -3.87839
C          2.26177        37.25708        -3.65613
C          3.65227         3.30090         0.50874
C          2.40848         4.02988         0.60439
C          3.85967         6.59560        -0.26458
C          2.07862         5.33139         0.10327
C          3.64287         7.73012         0.47519
C          2.33355         8.39712         0.54093
C          3.61490        10.51070         1.25746
C          2.33899         9.74831         1.19822
C          3.58323        11.95420         1.71241
C          2.27169        12.64586         1.39150
C          3.56846        14.82164         1.83133
C          2.24979        14.11140         1.47700
C          3.48363        16.38510         1.60595
C          2.39944        16.94230         0.69363
C          3.65158        19.07975         0.74639
C          2.49874        18.31907         0.33940
C          3.53534        20.56693         0.88310
C          2.62630        21.21205        -0.12393
C          3.69403        23.40956         0.38692
C          2.65252        22.59083        -0.26327
C          3.62964        24.81733         0.11134
C          2.76465        25.37620        -0.87537
C          4.25266        27.43323        -1.07133
C          2.93223        26.73126        -1.29243
C          4.15855        28.95206        -1.02972
C          3.11678        29.57158        -1.80429
C          4.08707        31.78534        -1.28077
C          3.05993        30.99083        -1.89877
C          4.06582        33.20457        -1.38619
C          2.80390        33.90437        -1.84389
C          4.05936        36.11261        -1.75463
C          3.03586        35.33240        -2.31355
C          4.28226        37.46485        -2.27402
C          3.32173        37.98989        -3.20966
C          6.16330         3.25611         0.55329
C          4.93903         3.69128         0.05632
C          6.20231         6.27431         0.49350
C          5.08856         5.87868        -0.24049
C          6.11472         7.63003         1.11907
C          4.81880         8.37228         1.09990
C          6.07270        10.58819         1.07097
C          4.81435         9.86038         1.16957
C          6.03337        12.01879         1.00190
C          4.80470        12.72512         1.21424
C          6.02124        14.84291         1.09887
C          4.79253        14.12467         1.23909
C          6.02494        16.28446         1.17195
C          4.82060        16.99111         1.22664
C          6.06815        19.14078         1.24990
C          4.83405        18.41135         1.08448
C          6.02250        20.57440         1.27604
C          4.85048        21.29724         1.02510
C          6.06887        23.40450         1.36178
C          4.81237        22.73462         1.00432
C          6.14982        24.78187         1.66322
C          4.49345        25.79168         0.74451
C          6.27082        27.62035         0.48983
C          4.98460        26.90659         0.13173
C          5.99274        29.13379         0.72205
C          5.12807        29.71921        -0.39298
C          6.19677        31.93855        -0.01790
C          5.14702        31.14736        -0.57544
C          6.17182        33.32854        -0.13668
C          5.09841        33.96759        -0.83361
C          6.04964        36.11202        -0.26949
C          5.04878        35.43436        -0.92054
C          6.40739        38.07797        -1.08614
C          5.43406        38.25951        -2.10603
C          8.61515         3.36856         0.46520
C          7.40349         4.03042         0.43366
C          8.63725         6.19503         0.72668
C          7.39190         5.48764         0.56388
C          8.63231         7.67744         0.96534
C          7.37266         8.43641         1.17934
C          8.47909        10.62275         0.59174
C          7.30068         9.90724         0.91958
C          8.47592        12.03649         0.56333
C          7.25121        12.73776         0.79966
C          8.48116        14.89334         0.74120
C          7.24448        14.16312         0.86684
C          8.50080        16.29459         0.93411
C          7.27060        17.00577         1.14836
C          8.57695        19.08806         1.68560
C          7.27560        18.40968         1.32958
C          8.54142        20.55886         1.38505
C          7.27466        21.26932         1.73725
C          8.53166        23.44793         1.44614
C          7.30077        22.73052         1.42237
C          8.53782        24.87514         1.42611
C          7.30173        25.54507         1.57911
C          8.50036        27.73377         1.53438
C          7.16505        27.04388         1.66036
C          8.43369        29.17557         1.36878
C          7.31743        29.84350         0.93146
C          8.46514        32.10707         1.14082
C          7.47709        31.24598         0.38725
C          8.43270        33.45967         1.04783
C          7.14617        34.17532         0.69567
C          8.45241        36.45633         0.53078
C          7.40515        35.50553        -0.06107
C          8.69085        37.78500        -0.13507
C          7.76386        38.36279        -1.08519
C         11.07313         3.49117        -0.15174
C          9.93497         4.05440         0.66246
C         11.06909         6.32722         0.09864
C          9.84378         5.55491         0.54442
C         11.13527         7.75348         0.68525
C          9.80693         8.42832         0.42877
C         10.98729        10.64603         0.05930
C          9.72745         9.90322         0.25702
C         10.92243        12.08275         0.01190
C          9.69881        12.77127         0.32344
C         10.90979        14.93050         0.22701
C          9.69818        14.18864         0.42823
C         10.92828        16.34640         0.41279
C          9.74082        17.02745         0.81809
C         11.00654        19.12619         0.95190
C          9.79778        18.41130         1.10027
C         11.08965        20.55144         1.34799
C          9.77631        21.29924         1.56979
C         10.99841        23.47079         1.34542
C          9.78575        22.76268         1.44255
C         10.98173        24.90544         1.36152
C          9.77081        25.60255         1.42107
C         10.97209        27.80336         1.34832
C          9.70848        27.06239         1.45893
C         10.96338        29.18919         1.42136
C          9.69894        29.90711         1.61701
C         10.97378        32.08986         1.34926
C          9.69054        31.39983         1.61126
C         10.93395        33.56589         1.44120
C          9.61584        34.28507         1.43218
C         10.98105        36.44005         1.11569
C          9.64910        35.77753         1.17972
C         11.02754        37.82806         0.72980
C          9.88645        38.43521         0.09939
C         13.41637         3.57593        -0.86657
C         12.25938         4.16978        -0.27872
C         13.55893         6.37624        -0.18919
C         12.38050         5.56201         0.31303
C         13.48848         7.80176        -0.15394
C         12.29828         8.51474         0.09385
C         13.34419        10.62862        -0.71443
C         12.18572         9.92325        -0.12943
C         13.28204        12.16217        -0.78553
C         12.08479        12.84233        -0.28089
C         13.30566        15.00676        -0.44472
C         12.10613        14.25379        -0.15931
C         13.29669        16.39739        -0.27372
C         12.13354        17.08264         0.20307
C         13.39971        19.25105         0.31175
C         12.17102        18.48902         0.45656
C         13.44201        20.65375         0.56248
C         12.26942        21.35833         0.99157
C         13.45465        23.51425         0.84023
C         12.24979        22.75679         1.11571
C         13.46466        24.91788         0.90336
C         12.29176        25.63917         1.52253
C         13.40647        27.82214         0.89007
C         12.21853        27.10947         1.19734
C         13.42677        29.25214         0.93666
C         12.25248        29.95273         1.57156
C         13.34000        32.17094         0.70163
C         12.13635        31.41249         1.19248
C         13.37698        33.58973         1.21024
C         12.21177        34.29503         1.31893
C         13.45501        36.43219         1.22072
C         12.18560        35.75023         1.30334
C         13.46918        37.85993         1.02076
C         12.23907        38.52329         0.76258
C         15.75255         3.63101        -1.58560
C         14.61371         4.27901        -1.02209
C         15.89578         6.39302        -1.03082
C         14.69158         5.69858        -0.69932
C         16.01029         7.82545        -0.73160
C         14.73646         8.57190        -0.34027
C         15.81508        10.67862        -1.06913
C         14.67505         9.99198        -0.69026
C         15.74531        12.14337        -1.27884
C         14.54087        12.89363        -0.87284
C         15.76186        15.01644        -0.92474
C         14.54643        14.30387        -0.78510
C         15.77454        16.48051        -0.94980
C         14.48094        17.20786        -0.61148
C         15.81999        19.27192        -0.16209
C         14.57848        18.59912        -0.13344
C         15.86990        20.67672         0.09942
C         14.66119        21.37829         0.38533
C         15.87328        23.52175         0.33311
C         14.66412        22.80303         0.51103
C         15.86362        24.95547         0.29435
C         14.62278        25.66973         0.53190
C         15.72405        27.82269        -0.07109
C         14.58711        27.08601         0.50031
C         15.74350        29.32718        -0.00526
C         14.58175        30.00605         0.61524
C         15.86733        32.14197         0.73030
C         14.63275        31.40704         0.77028
C         15.89837        33.52925         1.04894
C         14.67785        34.24217         1.57222
C         15.91225        36.40471         1.20210
C         14.67031        35.72639         1.29438
C         15.92199        37.84060         1.05774
C         14.69762        38.53976         0.97488
C         18.07136         3.66525        -2.44550
C         16.91894         4.32634        -1.88857
C         18.18602         6.47058        -1.96386
C         16.98518         5.74475        -1.63596
C         18.25645         7.88993        -1.79266
C         17.11989         8.59959        -1.29859
C         18.30235        10.73351        -1.54207
C         17.07927        10.00292        -1.28783
C         18.34957        12.14560        -1.35910
C         17.06380        12.88049        -1.29001
C         18.34863        15.04163        -0.86027
C         17.04612        14.30084        -0.85912
C         18.26027        16.50045        -1.30743
C         17.04588        17.21484        -0.77821
C         18.34204        19.23675        -0.20062
C         17.04909        18.54491        -0.44236
C         18.35346        20.70676        -0.10833
C         17.11013        21.39705         0.04439
C         18.34240        23.53108         0.13613
C         17.10620        22.81448         0.15515
C         18.33335        24.95907         0.16641
C         17.07775        25.64751         0.12809
C         18.34661        27.82847        -0.28833
C         17.05120        27.06812        -0.24152
C         18.34585        29.34865        -0.27071
C         17.04471        30.10501        -0.14805
C         18.31590        32.17731         0.50853
C         17.09084        31.49056         0.38918
C         18.33745        33.51825         0.92956
C         17.11950        34.22408         1.10370
C         18.37106        36.37461         1.08740
C         17.14162        35.68124         1.20952
C         18.37056        37.80822         0.94572
C         17.15974        38.51352         0.94194
C         19.21318         4.35825        -2.72653
C         20.47787         6.50006        -2.81329
C         19.30027         5.77760        -2.49863
C         20.55504         7.86749        -2.61123
C         19.44986         8.59734        -2.10566
C         20.70578        10.75715        -1.95545
C         19.49603        10.02878        -1.87189
C         20.74209        12.11995        -1.70852
C         19.56247        12.84684        -1.44144
C         20.62330        15.13514        -1.93127
C         19.69067        14.32114        -1.06984
C         20.66647        16.50405        -1.75297
C         19.58275        17.18871        -1.16136
C         20.83125        19.38085        -0.77385
C         19.65668        18.52637        -0.56546
C         20.79406        20.70513        -0.48373
C         19.57459        21.39954        -0.12805
C         20.78494        23.57175         0.13501
C         19.58164        22.83084         0.05047
C         20.77160        24.95282         0.23331
C         19.56063        25.67790         0.21102
C         20.66382        27.87661         0.56206
C         19.56496        27.13456         0.19586
C         20.67607        29.30866         0.52690
C         19.57827        30.03983         0.17362
C         20.83607        32.23555         0.39742
C         19.57813        31.54079        -0.04910
C         20.85261        33.44177         0.97123
C         19.61272        34.18993         1.38780
C         20.79941        36.37881         0.89304
C         19.62440        35.67450         1.06940
C         20.79457        37.79125         0.73903
C         19.61599        38.49311         0.77851
O          6.44874        34.43593         1.87261
O          8.23893         8.06992         2.31537
O          4.96508        25.44226         2.02293
O         16.31917        12.66941        -2.53803
O          9.56148         8.90995        -0.91864
O          5.05112         4.69092        -0.95120
O         10.62053        20.79897         2.72245
O          2.83119         5.91366        -0.93826
O          1.63057         9.88476         2.47534
O         15.73826         8.20682         0.66689
O          8.62373        36.48194         1.96169
O         16.13476        29.95175        -1.27281
O         16.15885        27.31104        -1.36748
O          5.89980        37.44884         0.07163
O          9.65103        30.69609         2.90007
O         13.03223        11.30650        -1.96897
O         10.23456        33.94132         2.70365
O          1.13449        14.64457         2.23941
O          1.61562         8.23786        -0.73302
O         18.52607        28.60175        -1.51636
O         14.91307        17.05313        -2.01392
O         19.14286        18.56416         0.82566
O         17.77519        14.66593         0.41596
O          3.77740        14.60157         3.21979
O          5.29119         7.69872         2.33129
O          7.91817        35.13441        -1.37440
H          7.95003        35.94190        -1.93161
O         12.49861        29.96726         3.02731
H         11.67248        30.32009         3.43913
O          2.52653        20.09409        -2.22554
H          2.61702        20.95439        -2.68857
O         19.57347        34.12511         2.85423
H         19.41849        33.19182         3.11033
O         18.03663        16.41160        -2.76702
H         17.07597        16.50861        -2.94887
O          2.85133        20.73937         2.18513
H          3.30802        20.16754         2.84018
O          6.61131        27.38749         2.95159
H          5.84015        26.79036         3.10074
O          3.17926        16.95938         2.90165
H          3.31937        16.19292         3.53713
O          7.13647        27.53436        -0.67170
H          6.57999        27.38002        -1.47543
O         10.94256         6.45248        -1.33969
H         10.35655         7.21718        -1.54692
O         13.14326        32.31135        -0.76086
H         12.28237        32.75834        -0.90736
O          3.72545        11.93720         3.15682
H          3.73155        12.90555         3.43723
O         12.58577         5.39589         1.75909
H         13.47488         5.00144         1.89002
O          7.19707        21.22730         3.22007
H          7.52671        20.33140         3.49616
O          5.03913        27.12670        -2.29384
H          4.57987        27.55422        -3.04872
O         14.77934        34.09865         3.04055
H         13.99694        34.54187         3.43421
O          1.97007        34.01166        -0.63175
H          2.51495        34.44499         0.06039
O         11.28443         7.71911         2.11514
H         11.96884         7.04643         2.34260
O         10.30196         3.80353         2.07656
H         11.11533         4.33692         2.25861
O          8.69767        18.95029         3.16009
H          9.52008        19.45276         3.39962
O         20.33635        14.31820         0.24074
H         19.61398        14.24223         0.90820
O          5.18706        29.31977         1.90505
H          5.69866        28.94946         2.66683
O          8.17589        31.01888        -0.90718
H          7.69462        30.30542        -1.38032
O         19.52202        31.71626        -1.49598
H         18.83898        31.11088        -1.85771
O         12.58100        25.61324         2.97621
H         11.84453        26.07516         3.43186
H          1.59345         2.44307         1.85690
H         -0.36569         3.72988         2.63358
H         -0.61527         6.13683         2.04800
H         -1.17766         7.84669         0.71938
H         -1.17502        10.23576         1.11510
H         -0.81030        12.02567         0.06395
H         -0.68159        14.38921        -0.52381
H         -0.66596        16.32667        -0.69894
H         -0.42014        18.63996        -1.42813
H         -0.37329        20.51009        -1.75931
H         -0.40720        22.92866        -1.86162
H         -0.11003        24.68165        -2.66241
H          0.09232        27.03748        -3.19478
H          0.35377        28.83713        -3.72598
H          0.32834        31.24410        -3.98400
H          0.43962        33.10432        -4.31476
H          0.45662        35.53942        -4.60109
H          1.53733        37.68755        -4.36219
H          3.66376         2.38573         1.12570
H          3.46033        39.02251        -3.56225
H          6.19624         2.36044         1.19244
H          5.59414        39.06987        -2.83507
H          8.62125         2.26857         0.48365
H          8.17135        39.03591        -1.85517
H         10.99597         2.45903        -0.52796
H         10.03008        39.43893        -0.32946
H         13.35794         2.53191        -1.20932
H         12.25597        39.58940         0.49106
H         15.69352         2.55244        -1.79455
H         14.70866        39.63057         0.83248
H         18.01505         2.58338        -2.63439
H         17.16894        39.60692         0.81980
H         20.08814         3.84052        -3.14596
H         21.34141         5.95902        -3.22639
H         21.48568         8.39017        -2.87046
H         21.64500        10.23576        -2.18402
H         21.70556        12.64722        -1.73538
H         21.44172        14.62785        -2.46184
H         21.55978        17.06195        -2.07774
H         21.75193        18.93290        -1.17299
H         21.70909        21.29447        -0.62989
H         21.75416        23.05673         0.12740
H         21.72852        25.48956         0.28081
H         21.57179        27.37276         0.92050
H         21.60627        29.81516         0.81982
H         21.79053        31.75399         0.13507
H         21.82155        33.88251         1.25162
H         21.76665        35.85842         0.88149
H         21.74983        38.31716         0.60307
H         19.61069        39.58772         0.67468
