         349
 CSIRO Nanostructure Databank - Neutral Graphene Oxide Data Set
C          1.27362         1.99470         0.88307
C          1.22319         3.35569         0.60377
C          2.50403         1.34440         0.99490
C          2.41090         4.08876         0.37877
C          1.13558         6.28261         0.30407
C          1.06068         7.62957         0.44416
C          2.38736         5.54231         0.33662
C          2.25357         8.44701         0.73718
C          1.00335        10.72942         0.35428
C          1.02485        12.07010         0.10749
C          2.24084         9.98228         0.61229
C          2.25396        12.80885         0.01736
C          1.06218        15.01095        -0.20128
C          1.03721        16.36152        -0.33968
C          2.28527        14.22704        -0.18527
C          2.25933        17.13374        -0.60671
C          2.31992        18.57953        -0.37185
C          3.71722         1.99746         0.70532
C          3.66261         3.39229         0.32299
C          4.93440         1.25283         1.02291
C          4.83424         4.18328         0.04296
C          3.58210         6.26339         0.40179
C          3.57692         7.72273         0.66039
C          4.83259         5.60137         0.18398
C          4.83781         8.48928         0.38833
C          3.49977        10.69237         0.29422
C          3.48085        12.05083         0.04378
C          4.73478         9.91251        -0.12057
C          4.75739        12.73529        -0.40341
C          3.52988        14.90855        -0.21794
C          3.58452        16.35932        -0.48734
C          4.76770        14.21765        -0.12109
C          4.78602        17.11750        -0.11774
C          3.51622        19.21283        -0.23682
C          4.75890        18.48761        -0.08309
C          6.14509         1.47309         0.40445
C          6.07704         3.56939        -0.25782
C          7.49322         1.09928         0.70200
C          7.30229         4.18630        -0.05588
C          6.05745         6.31809         0.00720
C          6.07243         7.76046        -0.00590
C          7.29819         5.61090        -0.04515
C          7.23847         8.47032        -0.20757
C          6.02497        10.65656         0.10396
C          6.01398        12.03833         0.05134
C          7.27130         9.91276        -0.00169
C          7.22544        12.79361         0.13057
C          5.97977        14.89882         0.01742
C          5.97453        16.35567         0.43077
C          7.21769        14.18378         0.04044
C          7.27785        17.09645         0.20200
C          5.97683        19.27950         0.34128
C          7.27264        18.50662         0.21313
C          8.59836         1.91562         0.36070
C          8.55162         3.45092         0.38306
C          9.87790         1.33267         0.39329
C          9.80774         4.15451        -0.09189
C          8.53477         6.29434        -0.22853
C          8.48821         7.74031        -0.64541
C          9.75844         5.57997        -0.27980
C          9.76450         8.45886        -0.33331
C          8.46538        10.60559         0.02095
C          8.47431        12.03528         0.51770
C          9.72606         9.95931        -0.48964
C          9.74892        12.81727         0.26507
C          8.50084        14.93493        -0.22765
C          8.50205        16.40836         0.13275
C          9.73457        14.17120         0.18253
C          9.71754        17.13348         0.15334
C          8.48046        19.21147         0.12878
C          9.71148        18.53897         0.13579
C         11.08016         2.05098         0.16417
C         11.03130         3.47954        -0.10606
C         12.32304         1.40898         0.21159
C         12.25879         4.17842        -0.37934
C         10.99256         6.29308        -0.49073
C         10.98186         7.75600        -0.42647
C         12.20021         5.58565        -0.61120
C         12.21708         8.44574        -0.35965
C         10.98007        10.60404         0.05341
C         11.02614        12.06313         0.37653
C         12.24310         9.91654        -0.33770
C         12.31485        12.77220         0.17541
C         11.00209        14.93470         0.32471
C         11.01374        16.42171         0.29593
C         12.24885        14.21752        -0.05893
C         12.28766        17.14885         0.04394
C         10.99292        19.35204         0.15372
C         12.27379        18.55998        -0.03174
C         13.54414         2.09871        -0.01374
C         13.51254         3.50307        -0.36508
C         14.76655         1.42891         0.16088
C         14.74681         4.18845        -0.61428
C         13.46100         6.27932        -0.91006
C         13.46800         7.80202        -0.73588
C         14.74754         5.57554        -0.81855
C         14.75856         8.42748        -0.30648
C         13.52898        10.65881        -0.23692
C         13.51555        12.11810         0.00877
C         14.79431         9.90833         0.00157
C         14.77463        12.81538        -0.12198
C         13.53334        14.99067        -0.19635
C         13.52487        16.46567        -0.00167
C         14.78363        14.21649        -0.12579
C         14.75924        17.16166         0.02382
C         13.47397        19.23564        -0.24966
C         14.74798        18.59708        -0.19863
C         16.04313         2.03214         0.00657
C         16.03728         3.42232        -0.59763
C         17.16259         1.19582         0.11384
C         17.25672         4.24241        -0.93716
C         15.95457         6.37836        -0.96218
C         15.99697         7.72802        -0.70220
C         17.14794         5.67187        -1.54415
C         17.28745         8.44715        -0.52025
C         16.05130        10.67199        -0.06332
C         16.02676        12.06889        -0.15131
C         17.30948         9.89841        -0.05428
C         17.27100        12.81212        -0.21642
C         16.00314        14.94538        -0.09284
C         15.97235        16.35878         0.09601
C         17.24603        14.24347        -0.18127
C         17.21625        16.96395         0.35678
C         15.88564        19.41380        -0.52112
C         17.21291        19.11887        -0.10584
C         18.51928         1.68609         0.12982
C         18.57384         3.87701        -0.38627
C         19.71176         1.20322        -0.31499
C         19.75070         4.30958        -0.90149
C         18.48140         6.44980        -1.49621
C         18.53136         7.85316        -1.06488
C         19.81056         5.69681        -1.41461
C         19.74626         8.54560        -1.06007
C         18.64558        10.64727        -0.06276
C         18.51471        12.14369        -0.28627
C         19.68511        10.07632        -1.05438
C         19.72431        12.85913        -0.35726
C         18.46434        14.98142        -0.24800
C         18.42771        16.38577        -0.04166
C         19.72184        14.28822        -0.32135
C         19.62849        17.21487        -0.25882
C         18.46308        19.44389        -0.59016
C         19.68695        18.75254        -0.00068
C         20.96176         2.04719        -0.42566
C         20.99790         3.53248        -0.69884
C         22.20707         1.43621         0.20491
C         22.25766         4.32106        -0.58917
C         21.03998         6.43820        -1.08489
C         20.99648         7.84609        -1.13756
C         22.24786         5.70508        -0.84825
C         22.27686         8.59885        -1.18517
C         20.99637        10.78605        -0.76745
C         20.99144        12.14639        -0.45467
C         22.25969        10.10900        -1.05547
C         22.21494        12.88240        -0.26578
C         20.93409        14.99704        -0.17825
C         20.93777        16.46783        -0.24465
C         22.17088        14.28992        -0.07213
C         22.10605        17.26092         0.34423
C         20.98989        19.27199        -0.59443
C         22.17916        18.62596        -0.41694
C         23.48702         2.21512        -0.03573
C         23.48088         3.61708        -0.39199
C         24.66392         1.55947         0.25353
C         24.72684         4.32888        -0.45235
C         23.54953         6.40339        -1.17758
C         23.54853         7.88934        -0.92653
C         24.77477         5.69998        -0.66853
C         24.75310         8.55391        -0.74610
C         23.54033        10.81036        -0.70450
C         23.47596        12.18945        -0.15702
C         24.80894        10.03316        -0.59899
C         24.63041        12.79748         0.30415
C         23.37058        15.00882         0.19670
C         23.36659        16.40497         0.33163
C         24.71037        14.29362         0.17516
C         24.55572        17.03179         0.70674
C         23.42496        19.13913        -0.95953
C         24.63649        18.91287        -0.32037
C         25.95236         2.20113         0.18614
C         26.00296         3.53114        -0.51998
C         27.07973         1.59604         0.64781
C         27.23897         4.33659        -0.21678
C         26.01311         6.44504        -0.63956
C         26.00306         7.85002        -0.68254
C         27.24925         5.73436        -0.46253
C         27.27921         8.67017        -0.76591
C         26.00221        10.64672         0.06627
C         25.76265        11.92840         0.86312
C         27.18605         9.99407         0.00455
C         27.04742        12.70486         1.27526
C         25.84082        15.00832         0.88405
C         25.83134        16.39233         0.80225
C         27.01067        14.25026         1.39319
C         27.01153        17.36383         0.93629
C         25.97318        19.04107        -0.77999
C         27.09844        18.40880        -0.19640
C         28.39132         2.31388         0.78708
C         28.41108         3.67112         0.13009
C         29.61779         1.50767         0.44346
C         29.66944         4.33457        -0.01212
C         28.48815         6.45380        -0.41944
C         28.51878         7.87480        -0.43390
C         29.69680         5.70792        -0.31572
C         29.72354         8.52303         0.01042
C         28.48508        10.74303         0.24262
C         28.33636        11.90875         1.21321
C         29.68184         9.84461         0.54695
C         29.42751        12.24987         1.93738
C         28.24688        15.11026         1.54882
C         28.29887        16.53336         1.10860
C         29.53909        14.42228         1.74056
C         29.52599        16.87664         0.31236
C         28.36780        18.86794        -0.58884
C         29.59812        18.22588        -0.28678
C         30.80109         2.14263         0.20527
C         30.88090         3.57064         0.07262
C         32.13249         4.25046        -0.07635
C         30.98416         6.42621        -0.60819
C         30.93999         7.77476         0.07903
C         32.20264         5.58953        -0.32391
C         32.04966         8.28879         0.74310
C         30.81083        10.31654         1.23654
C         30.77988        11.61669         1.99532
C         31.96994         9.53583         1.35989
C         31.90934        12.56319         1.59491
C         30.73939        14.76439         1.20359
C         30.76302        15.99490         0.34069
C         31.90510        13.88993         1.33148
C         32.02360        16.67327        -0.00106
C         30.83135        18.69084        -0.73304
C         32.02402        17.93644        -0.52900
O         18.58806         2.98947         0.68243
O          2.16322         9.27948         1.92473
O         24.51987        18.37788         0.99403
O         22.30206         9.47781        -2.38650
O         28.35268        16.21915         2.54804
O         19.26382         6.11219        -2.69987
O         24.49735        10.77400        -1.84144
O         16.71944         3.29054        -1.91231
O         29.77762        15.87343        -0.74942
O          3.00640        16.69705        -1.79182
O         12.72943        14.61088        -1.38903
O         21.18470         2.50804        -1.78924
O         11.08521        15.66756         1.59306
O         26.76720        13.37301         2.54403
O         17.22608        18.20337         0.97691
O         12.91717        10.41938        -1.56314
O          6.06603         2.27273        -0.75718
O         17.38399         8.81251         0.93207
O         29.42513        13.41753         2.71870
O         10.98186        11.02496         1.44712
O         13.43590         7.19969        -2.05989
O         21.84690        17.47082         1.70443
O         20.33070        16.90984        -1.50786
O          4.45956         8.17971         1.75240
O         14.69976         8.91032         1.07824
O         27.43660         9.08400        -2.17630
H         26.57257         9.44947        -2.47167
O         31.01504         6.70978        -2.05281
H         30.88592         5.85873        -2.52219
O          8.55209         3.71159         1.84587
H          9.39376         3.35751         2.20577
O         19.26841        10.45081        -2.39273
H         19.98637        10.18586        -3.00862
O         19.22264        10.51990         1.26021
H         18.76775         9.76479         1.70348
O         23.65588         6.26757        -2.65485
H         22.91697         6.78111        -3.04920
O         21.99937         1.31104         1.62610
H         21.97441         2.20738         2.01913
O         28.78389        11.34096        -1.05985
H         28.61979        10.64303        -1.74108
O         16.80055         5.53868        -2.93239
H         17.62421         5.31172        -3.42083
O          8.41140         7.73367        -2.14733
H          9.14848         7.16729        -2.46647
O         28.51483         2.58926         2.23738
H         29.38742         3.01516         2.37899
O         19.72651        19.00131         1.40901
H         20.53142        18.50936         1.76870
O          9.72951        10.22943        -1.93210
H          9.14153         9.54993        -2.34712
O         26.84508        18.15696         2.12263
H         27.10732        17.59783         2.88994
O          6.04600        20.51704        -0.37264
H          6.13012        20.31602        -1.32699
O         25.13305        14.48157        -1.26020
H         24.55947        13.90109        -1.80906
O         31.02912        11.29290         3.39495
H         30.79218        12.09272         3.91391
O          8.40931        11.91923         1.98217
H          9.24976        11.48133         2.26129
O          4.77838        12.59497        -1.88014
H          4.08475        13.18942        -2.24137
O         26.12787         3.18545        -1.94784
H         25.85781         3.97071        -2.47145
O          4.58089         9.76684        -1.57176
H          4.68350        10.67090        -1.96527
O          8.58676        14.97506        -1.70271
H          8.57671        14.05167        -2.03538
O         10.91463        20.40732        -0.81515
H         10.85339        20.00286        -1.70457
O         25.21404        11.40309         2.11267
H         25.36520        12.09062         2.80336
O          5.78749        16.31125         1.88928
H          5.97956        17.20360         2.24688
H          0.34415         1.44175         1.07702
H          0.24973         3.86287         0.61350
H          2.53038         0.28979         1.30446
H          0.20240         5.72892         0.13082
H          0.07839         8.12268         0.42236
H          0.04100        10.21144         0.46911
H          0.06791        12.59296        -0.02326
H          0.10972        14.49406        -0.02176
H          0.08791        16.90683        -0.22925
H          1.37798        19.14313        -0.29810
H          4.86271         0.50881         1.83073
H          3.55237        20.30402        -0.10561
H          7.69711         0.11460         1.15371
H          5.84555        19.55504         1.42788
H          9.95258         0.24419         0.54315
H          8.46004        20.31024         0.09590
H         12.36162         0.33667         0.45527
H         11.05765        19.85982         1.15633
H         14.73370         0.37179         0.46733
H         13.44094        20.32620        -0.39176
H         16.98334         0.11438         0.22197
H         15.68953        20.34536        -1.07505
H         19.77997         0.19228        -0.74286
H         18.57836        20.12677        -1.44467
H         22.33441         0.39342        -0.18314
H         20.98687        20.28281        -1.03420
H         24.61977         0.52168         0.61847
H         23.40697        19.66949        -1.92501
H         27.00929         0.59414         1.10094
H         26.15565        19.67254        -1.66414
H         29.58334         0.41329         0.54615
H         28.41099        19.75449        -1.24136
H         31.72676         1.55900         0.08472
H         33.05864         3.66284         0.01857
H         33.18814         6.05322        -0.47803
H         32.97761         7.70543         0.81301
H         32.81865         9.91779         1.94254
H         32.89689        12.07354         1.60752
H         32.87953        14.34688         1.09488
H         32.97767        16.16766         0.20274
H         30.89550        19.67170        -1.22480
H         32.98293        18.40003        -0.80249
