         638
 CSIRO Nanostructure Databank - Neutral Graphene Oxide Data Set
C         23.52932        69.83504        -2.86909
C         23.59862        71.21822        -3.15854
C         22.52039        71.90897        -3.78192
C         23.78956        73.97864        -3.76165
C         22.62531        73.26210        -4.07377
C         25.77435        65.60867        -1.72413
C         25.70108        67.02770        -1.69404
C         24.58698        67.73510        -2.11349
C         25.75946        69.91027        -1.86939
C         24.59843        69.16606        -2.24759
C         25.87644        71.27188        -2.20847
C         24.79032        71.94124        -2.84201
C         26.07652        74.04382        -2.80995
C         24.88256        73.33751        -3.14379
C         28.10268        61.27175        -1.20710
C         27.85600        62.59558        -1.64493
C         26.83325        63.47746        -1.35308
C         28.21571        65.66161        -1.28258
C         26.96257        64.91297        -1.51548
C         28.14711        67.03930        -0.99012
C         26.85266        67.72815        -1.09472
C         28.13593        69.95315        -0.95624
C         26.85329        69.25417        -1.14379
C         28.15314        71.35097        -1.24753
C         27.07449        72.00035        -1.86103
C         28.35325        74.13543        -1.89525
C         27.15190        73.41509        -2.17986
C         30.56583        57.17056        -0.55834
C         30.58403        58.55457        -0.76700
C         29.40722        59.29968        -0.86355
C         30.67324        61.42840        -1.04812
C         29.39005        60.69585        -1.13216
C         30.72869        62.87776        -0.95686
C         29.72062        63.68728        -1.48814
C         30.58519        65.70149        -0.46828
C         29.49543        65.02830        -1.10990
C         30.48716        67.09939        -0.22593
C         29.29574        67.78466        -0.54569
C         30.49104        69.95657        -0.18250
C         29.26381        69.24568        -0.48953
C         30.45764        71.44258        -0.13843
C         29.28506        72.15342        -0.74860
C         30.67658        74.19190        -1.09889
C         29.43081        73.54406        -1.23848
C         32.91086        52.89326         0.12531
C         32.92459        54.29635         0.02119
C         31.73844        55.03382        -0.22734
C         33.02900        57.13224        -0.31258
C         31.76220        56.42296        -0.39082
C         33.07775        58.52523        -0.48429
C         31.89132        59.24449        -1.06970
C         33.06783        61.40368        -0.41193
C         31.85369        60.72780        -0.79604
C         33.04045        62.80406        -0.09336
C         31.82739        63.55395        -0.33385
C         32.88518        65.63893         0.52258
C         31.75875        64.94960        -0.14041
C         32.93972        67.11535         0.41826
C         31.61126        67.83181         0.48008
C         32.95141        69.97714         0.12435
C         31.67724        69.28828         0.09002
C         32.99643        71.38588        -0.03532
C         31.74633        72.21594         0.13612
C         33.06222        74.18949        -0.63613
C         31.82423        73.55089        -0.59287
C         35.28483        48.62325         0.14023
C         35.24628        49.98611         0.44246
C         34.07914        50.74277         0.27893
C         35.33070        52.85958         0.59335
C         34.09193        52.16276         0.37059
C         35.36621        54.27962         0.45776
C         34.17759        54.99475         0.15244
C         35.46686        57.09870         0.06470
C         34.21980        56.40835        -0.00806
C         35.48695        58.50270        -0.08619
C         34.29604        59.22569        -0.31670
C         35.48788        61.37607         0.04864
C         34.28647        60.68367        -0.27233
C         35.45198        62.77390         0.33384
C         34.21401        63.46230         0.33505
C         35.43055        65.65870         1.09057
C         34.14898        64.87066         0.79535
C         35.41796        67.08216         0.53712
C         34.14478        67.78667         0.37685
C         35.41145        69.91676         0.17544
C         34.16746        69.23727         0.22158
C         35.44183        71.33438         0.01944
C         34.22347        72.06301        -0.10069
C         35.48947        74.16860        -0.27033
C         34.26854        73.50159        -0.30653
C         37.78622        44.50554        -0.90229
C         37.74821        45.85654        -0.50359
C         36.52659        46.55363        -0.30657
C         37.74689        48.56387         0.43790
C         36.50977        47.89013         0.11548
C         37.74925        49.93105         0.82160
C         36.44821        50.64454         1.07564
C         37.76346        52.77623         0.98721
C         36.54119        52.13147         0.83490
C         37.77952        54.26343         1.22193
C         36.60475        54.98581         0.60438
C         37.94022        57.05551         0.49021
C         36.67008        56.35727         0.36785
C         37.98182        58.46656         0.34428
C         36.80085        59.21486        -0.23576
C         37.90058        61.34973         0.45141
C         36.73616        60.67061         0.15565
C         37.90461        62.77935         0.56855
C         36.67964        63.49164         0.55586
C         37.89951        65.59286         0.73913
C         36.69199        64.90653         0.72801
C         37.91860        67.10346         0.90844
C         36.61421        67.75828         0.48076
C         37.87119        69.87759         0.22568
C         36.65369        69.19068         0.25880
C         37.89096        71.30831         0.21452
C         36.68074        72.03326         0.06540
C         37.92751        74.14594         0.10033
C         36.70861        73.46839        -0.03293
C         40.22004        40.27247        -1.62706
C         40.21341        41.65568        -1.28119
C         39.01329        42.38646        -1.24761
C         40.25538        44.44183        -0.77425
C         39.01439        43.77563        -0.98352
C         40.25897        45.94230        -0.73926
C         38.97764        46.56596        -0.28208
C         40.23570        48.50486         0.59405
C         38.98510        47.87435         0.21054
C         40.16737        49.79031         1.38614
C         38.94798        50.61293         1.08175
C         40.24378        52.72709         1.22084
C         38.99695        52.03945         1.14967
C         40.29690        54.16928         1.08921
C         39.11253        54.91591         0.96892
C         40.38194        57.03101         0.82855
C         39.13468        56.33377         0.77620
C         40.40326        58.45463         0.73085
C         39.17749        59.15787         0.54289
C         40.42448        61.36983         0.54071
C         39.15812        60.62567         0.85578
C         40.40253        62.74197         0.63955
C         39.14245        63.47665         0.66300
C         40.39384        65.60583         0.70174
C         39.13589        64.88406         0.66040
C         40.40511        67.00466         0.63177
C         39.12612        67.64548         0.10924
C         40.34326        69.87383         0.71962
C         39.20025        69.18720        -0.00661
C         40.31514        71.29372         0.74451
C         39.11692        72.01373         0.40761
C         40.33480        74.14056         0.63603
C         39.12705        73.44256         0.37483
C         42.59950        36.05485        -2.55319
C         42.59163        37.43331        -2.18594
C         41.41169        38.16865        -2.09652
C         42.65526        40.17979        -1.33535
C         41.40481        39.53824        -1.68649
C         42.66597        41.57125        -0.99459
C         41.45544        42.31635        -0.98408
C         42.72606        44.39928        -0.45556
C         41.47554        43.72731        -0.74134
C         42.68763        45.83671        -0.23201
C         41.48003        46.51501        -0.08792
C         42.63413        48.26080         1.33006
C         41.43479        47.81855         0.50503
C         42.66578        49.78327         1.56165
C         41.45098        50.57606         1.33745
C         42.75457        52.67602         1.32548
C         41.47464        51.96709         1.32678
C         42.77296        54.12750         1.19581
C         41.57784        54.85332         1.06986
C         42.80870        57.03606         1.03043
C         41.60153        56.30927         0.98917
C         42.83019        58.45015         0.87852
C         41.64056        59.16301         0.73590
C         42.92172        61.35566         0.84116
C         41.70936        60.61811         0.29653
C         42.87666        62.75550         1.02545
C         41.63635        63.48672         0.78567
C         42.92504        65.60108         0.93416
C         41.61135        64.86925         0.85408
C         42.78410        67.06715         1.26408
C         41.58029        67.73503         0.99136
C         42.66348        69.90722         1.52112
C         41.51881        69.18960         1.09726
C         42.67676        71.31666         1.43085
C         41.49458        72.01949         1.06540
C         42.71636        74.15357         1.27751
C         41.50281        73.45343         0.98502
C         45.01853        33.23211        -3.03584
C         43.80471        33.95155        -2.97762
C         45.10184        36.06954        -2.63346
C         43.78744        35.32321        -2.67469
C         45.02098        37.33057        -1.81213
C         43.85110        38.05750        -1.78445
C         45.09275        40.08119        -1.02752
C         43.85101        39.43717        -1.33994
C         45.10767        41.46918        -0.70221
C         43.89491        42.21969        -0.66675
C         45.16891        44.15727         0.13781
C         43.90176        43.60813        -0.29120
C         45.31707        45.31004         1.09164
C         43.87702        46.68955        -0.14815
C         45.22506        48.38775         1.06691
C         43.94256        47.76349         0.71999
C         45.23813        49.78408         1.30817
C         43.98496        50.52535         1.55015
C         45.25875        52.70843         1.15091
C         43.95214        51.98208         1.36589
C         45.19666        54.13460         1.65753
C         44.03390        54.82331         1.37957
C         45.19270        57.05050         1.78389
C         44.11670        56.29144         1.03873
C         45.23641        58.50852         1.50305
C         44.15308        59.18318         0.68855
C         45.26451        61.34662         1.56342
C         44.11968        60.66110         1.06062
C         45.19376        62.73546         1.82647
C         44.01080        63.42917         1.54114
C         45.21010        65.62074         1.94370
C         43.89355        64.89151         1.88499
C         45.15392        67.05429         1.92248
C         43.95813        67.74444         1.70361
C         45.15690        69.95095         1.90794
C         43.85780        69.19776         2.11901
C         45.12906        71.33557         1.71757
C         43.90565        72.04784         1.60553
C         45.11649        74.26103         1.94536
C         43.88746        73.47695         1.55935
C         46.23298        33.82166        -2.73350
C         47.49143        35.76317        -1.92851
C         46.31994        35.20861        -2.37114
C         47.53962        37.11874        -1.33246
C         46.24944        37.89786        -1.22911
C         47.55561        39.98065        -0.77385
C         46.31181        39.35396        -1.02110
C         47.58902        41.38698        -0.54243
C         46.36745        42.10847        -0.49353
C         47.62493        44.28122        -0.28026
C         46.35881        43.48924        -0.12022
C         47.67465        45.60068         0.45020
C         46.49545        46.21652         0.86216
C         47.73023        48.31593         1.29526
C         46.43451        47.62628         1.12877
C         47.74104        49.80880         1.45665
C         46.44621        50.52964         1.43611
C         47.76920        52.52626         1.99185
C         46.46799        51.90604         1.54004
C         47.74114        54.04967         2.13986
C         46.43024        54.81125         2.13715
C         47.75125        56.94319         1.74272
C         46.46315        56.34600         2.27666
C         47.79275        58.41448         1.58525
C         46.55009        59.21292         1.48278
C         47.65684        61.28256         2.28479
C         46.53602        60.66197         1.81689
C         47.66000        62.73588         2.76612
C         46.27114        63.46464         2.63015
C         47.63848        65.64471         2.25121
C         46.37778        64.93180         2.22860
C         47.65298        67.03889         2.23321
C         46.35689        67.79248         2.45150
C         47.61546        69.92161         2.05451
C         46.39818        69.24719         2.04139
C         47.60465        71.43159         2.14645
C         46.42278        72.04802         1.39755
C         47.58168        74.21491         1.62419
C         46.40734        73.54443         1.64866
C         48.78229        37.89455        -1.24454
C         50.11741        39.85251        -0.54051
C         48.78723        39.21120        -0.87904
C         50.11849        41.36185        -0.47541
C         48.85797        42.10034        -0.39843
C         50.16604        44.25163        -0.40496
C         48.88731        43.46598        -0.23335
C         50.14650        45.57891         0.30768
C         48.95005        46.28549         0.49820
C         50.18909        48.42061         0.74872
C         48.97576        47.66110         0.86559
C         50.17190        49.81005         0.78095
C         48.87732        50.56172         0.79673
C         50.15509        52.68241         1.25968
C         48.98887        51.98117         1.29051
C         50.14279        54.13136         1.45033
C         48.99721        54.79561         1.83527
C         50.19999        56.99276         1.63605
C         48.93838        56.25417         1.72804
C         50.18688        58.40678         2.00338
C         49.02117        59.10396         2.00583
C         50.20802        61.26808         2.24230
C         48.93564        60.49760         2.59232
C         50.15054        62.75061         1.88870
C         48.85980        63.50049         2.20464
C         50.14447        65.62658         2.06592
C         48.87813        64.87679         2.16817
C         50.10713        67.07604         2.12107
C         48.89670        67.77303         2.20075
C         50.06031        69.97960         2.08148
C         48.86997        69.23325         2.16830
C         50.06424        71.37589         1.72646
C         48.88228        72.09118         1.68519
C         50.00573        74.21217         1.15306
C         48.85528        73.51725         1.44219
C         51.31975        42.00956        -0.39136
C         52.62902        44.06290        -0.04568
C         51.42901        43.44305        -0.22166
C         52.72157        45.49608         0.33402
C         51.42353        46.25462         0.57925
C         52.65719        48.40778         0.40551
C         51.45114        47.72400         0.55218
C         52.67946        49.85803         0.43563
C         51.37239        50.61792         0.38182
C         52.65220        52.72371         0.66901
C         51.46611        51.92614         1.17346
C         52.55896        54.19818         0.52374
C         51.22723        54.93578         0.74103
C         52.63100        57.07708         1.30773
C         51.37005        56.33857         1.31677
C         52.65783        58.40857         1.69669
C         51.47552        59.07562         2.40742
C         52.72235        61.34551         2.29331
C         51.38769        60.59753         2.21673
C         52.62820        62.80716         1.95865
C         51.38244        63.49073         2.44515
C         52.68450        65.65694         2.20611
C         51.34913        64.95913         2.10179
C         52.64059        67.12847         1.92060
C         51.37945        67.80744         2.31653
C         52.64424        70.05526         2.09488
C         51.34795        69.32215         2.31695
C         52.63631        71.44802         1.59763
C         51.31512        72.01112         1.25311
C         52.53559        74.20503         0.77263
C         51.25932        73.50542         0.89557
C         53.89336        46.31613         0.00765
C         55.15679        48.44604        -0.18020
C         53.88403        47.67956         0.13073
C         55.13868        49.90203         0.23428
C         53.85523        50.58104         0.40991
C         55.10809        52.77300         0.11133
C         53.81873        52.04926         0.43796
C         55.12920        54.22093         0.55632
C         53.85345        54.96504         0.56005
C         55.10055        57.02960         0.99211
C         53.86612        56.38067         0.96810
C         55.09716        58.45797         0.98861
C         53.96068        59.16433         1.70089
C         54.48819        61.40754         0.58754
C         53.74939        60.64303         1.45524
C         54.77908        62.80383         0.77283
C         53.72146        63.50989         1.43745
C         54.91379        65.58450         0.96859
C         53.79212        64.94149         1.46810
C         54.85053        67.07266         0.71581
C         53.75897        67.78763         1.50588
C         55.13181        69.97512         1.30969
C         53.88826        69.24218         1.73831
C         55.12995        71.47992         1.31985
C         53.79667        72.14094         1.29380
C         54.88955        74.11317         0.16744
C         53.72626        73.50248         0.76221
C         56.30531        50.58930         0.32519
C         57.59150        52.77825         0.44293
C         56.30593        52.04029         0.72738
C         57.60313        54.15893         0.45596
C         56.33081        54.88241         0.60881
C         57.56908        56.99970         0.70596
C         56.36390        56.32471         0.76481
C         57.61176        58.47593         1.00529
C         56.29084        59.10820         0.66153
C         57.37848        61.28174         0.15152
C         56.28648        60.40497         0.14371
C         57.22264        62.70062         0.01987
C         56.00591        63.42978         0.37447
C         57.25702        65.58763         0.09695
C         56.05831        64.86537         0.46427
C         57.33281        67.02510         0.16461
C         56.21046        67.78236         0.84517
C         57.41880        69.98603         0.22714
C         56.09253        69.25966         0.38192
C         57.46440        71.35639         0.27461
C         56.37678        72.24084         0.86910
C         57.19964        74.06013        -0.64709
C         56.10543        73.47681         0.04965
C         58.81064        54.91697         0.32097
C         59.98774        57.08992         0.17954
C         58.81735        56.31711         0.41950
C         59.96804        58.50771         0.08245
C         58.75737        59.22610         0.38442
C         59.77830        61.34205        -0.36348
C         58.66046        60.59978         0.15035
C         59.62591        62.69742        -0.62459
C         58.40982        63.43074        -0.30313
C         59.73080        65.54591        -0.43948
C         58.40274        64.84568        -0.30331
C         59.66646        67.03358        -0.65215
C         58.49068        67.75060        -0.23171
C         59.70317        69.85652        -0.73555
C         58.54974        69.19044        -0.23029
C         59.73015        71.27713        -0.83237
C         58.72737        72.11073        -0.08041
C         59.48006        74.04061        -1.50468
C         58.43159        73.42614        -0.78898
C         61.08313        59.23562        -0.39511
C         62.10285        61.32388        -1.20564
C         61.01740        60.62838        -0.64952
C         61.99983        62.69639        -1.58954
C         60.69912        63.38344        -1.37053
C         61.89625        65.59020        -1.79090
C         60.65418        64.87638        -1.43780
C         61.99220        66.92169        -1.53421
C         60.82176        67.67854        -1.08311
C         61.93422        69.77703        -1.80451
C         60.83900        69.11287        -1.21021
C         61.87849        71.19291        -2.02551
C         60.75827        71.93367        -1.51819
C         61.74142        73.98502        -2.48384
C         60.67527        73.35343        -1.79327
C         63.07115        63.39878        -2.09438
C         64.21415        65.55428        -2.75809
C         62.91730        64.81357        -2.59529
C         64.34026        66.87806        -2.48065
C         63.30767        67.64359        -1.67677
C         64.20359        69.70068        -2.76024
C         63.13974        69.06431        -2.16874
C         64.09316        71.11568        -3.26945
C         62.91214        71.86471        -2.70594
C         63.93251        73.93793        -3.73305
C         62.85160        73.26354        -2.91609
C         65.51336        67.62662        -2.87892
C         66.62016        69.76873        -3.40345
C         65.46089        68.99994        -3.00137
C         66.61096        71.13789        -3.45498
C         65.38394        71.90277        -3.00092
C         66.42139        73.92819        -4.00438
C         65.29498        73.29775        -3.58223
C         67.77673        71.89916        -3.83746
C         67.69392        73.24308        -4.05517
O         45.69997        63.49226         3.97816
O         47.29472        58.89687         0.25069
O         43.33932        50.10282         2.82956
O         29.38929        71.97649         0.72611
O         47.01252        54.28804         3.39665
O         52.20948        45.68727         1.70524
O         44.66536        45.33717         2.12459
O         60.09458        64.10224        -2.54167
O         51.38557        68.55913         3.57831
O         53.15135        54.68261        -0.74879
O         28.88116        63.13450        -2.45076
O         55.11537        60.79457        -0.50422
O         33.16356        65.07681         1.87205
O         46.76465        37.13983        -0.06017
O         47.97912        49.00763         2.62369
O         53.58460        69.65856         3.11249
O         55.62373        70.69231         2.47313
O         26.46073        68.52074         0.07143
O         51.17420        72.43999        -0.13838
O         44.71125        58.01582         2.76444
O         50.65077        55.12110        -0.58936
H         51.40752        55.28631        -1.19969
O         63.56437        73.83331        -5.12693
H         63.63432        72.87523        -5.35834
O         55.25859        52.78234        -1.33130
H         54.54781        53.37049        -1.67689
O         40.38655        46.36309        -2.17258
H         39.58879        46.02323        -2.63350
O         48.45413        50.67642        -0.60868
H         49.20022        51.11370        -1.08756
O         46.15426        67.84905         3.92302
H         46.91002        68.34893         4.30248
O         51.67708        58.82294         3.82530
H         52.22850        59.55784         4.18055
O         63.94373        71.05566        -4.72595
H         63.22293        70.42227        -4.92767
O         55.41210        48.37807        -1.60061
H         54.83051        49.02683        -2.04725
O         46.66512        71.83553        -0.02149
H         45.90954        72.21045        -0.51962
O         44.85296        46.49426        -1.08648
H         44.63371        45.72203        -1.64566
O         56.50856        67.79762         2.26107
H         57.26466        68.40096         2.41799
O         50.29763        62.81893         0.43777
H         49.54763        62.33775         0.02889
O         41.90099        60.55091        -1.15843
H         42.78676        60.13807        -1.30766
O         36.22406        50.52676         2.53201
H         36.41206        49.59771         2.78517
O         55.47677        69.36201        -0.92371
H         55.90585        68.71568        -1.52302
O         43.63930        69.17010         3.57052
H         44.42285        68.70608         3.96191
O         51.36610        63.39747         3.90705
H         51.95983        64.12744         4.22196
O         47.99366        51.99638         3.34131
H         47.41167        52.50917         3.94921
O         43.55329        65.51035        -0.38232
H         42.91478        65.85214        -1.04274
O         53.04478        65.57339         3.64773
H         52.86017        66.45025         4.05297
O         56.94243        72.80223         2.10848
H         56.81252        72.11309         2.80279
O         51.16133        50.99850        -1.02591
H         51.27933        50.19221        -1.57178
O         50.20373        44.64270        -1.83416
H         49.29570        44.97880        -2.05094
O         63.84005        67.74810        -0.31599
H         64.65009        68.29917        -0.36070
O         39.11142        60.64653         2.34236
H         38.29490        60.17888         2.62110
O         65.47310        72.04419        -1.55309
H         66.29501        72.53916        -1.35290
O         46.53521        56.68474         3.68002
H         47.04669        55.97262         4.13032
O         47.51446        44.70894        -1.72563
H         47.39169        43.88686        -2.25001
O         31.73975        72.55894         1.55429
H         30.79441        72.70639         1.79461
O         57.75152        58.62210         2.46119
H         56.87631        58.42423         2.86486
O         48.96443        60.27403         4.02653
H         48.73657        61.13974         4.45415
O         40.02318        49.36582         2.78974
H         40.78438        48.76210         2.98672
O         62.35851        64.70334        -3.95142
H         61.43631        64.35988        -3.83882
O         60.41848        65.34287         0.84691
H         59.92781        65.84539         1.53121
O         44.46408        59.11768        -0.73045
H         44.71388        58.18120        -0.92681
O         39.51965        69.47345        -1.42119
H         39.48234        70.44773        -1.53588
O         45.08265        74.49129         3.37108
H         44.15821        74.69020         3.62664
O         43.42447        65.00551         3.31000
H         44.84189        63.99082         3.94369
O         38.91280        67.09252        -1.21224
H         39.30754        67.71838        -1.86153
O         45.41347        52.86798        -0.31931
H         44.64084        53.38043        -0.64080
O         38.09388        67.40077         2.31128
H         37.32097        67.00740         2.78050
O         42.40293        47.66864         2.63913
H         43.09009        48.03971         3.23885
O         53.07312        61.27961         3.73615
H         52.46415        61.93917         4.17038
O         37.05975        59.23454        -1.68905
H         37.01838        58.30834        -2.00846
O         51.76459        51.53866         2.54230
H         51.55806        52.28734         3.13914
O         44.57894        56.29538        -0.37304
H         43.89259        55.84599        -0.91167
O         32.06267        59.12884        -2.53169
H         32.01649        58.17438        -2.75343
O         42.23807        64.18759         3.47942
H         41.53490        64.85781         3.66302
O         35.51858        65.83587         2.54028
H         34.58536        65.81412         2.86926
O         37.57532        54.40323         2.68575
H         36.85831        53.78311         2.94178
O         45.31053        36.55862        -4.01602
H         44.46387        36.95585        -4.31361
O         54.43926        67.14532        -0.68237
H         53.66584        66.55474        -0.80206
O         47.44735        71.71846         3.56717
H         47.24022        72.67461         3.65976
O         54.50081        59.08195         3.08951
H         54.12995        59.84228         3.60333
O         48.00087        62.70454         4.18502
H         47.18715        62.97136         4.68199
O         56.10057        52.09986         2.17493
H         56.84456        51.63030         2.60615
O         59.40500        72.47391         1.16674
H         58.70248        72.86483         1.74858
O         31.24982        67.83462         1.90942
H         30.41481        68.34220         2.00089
O         51.14746        39.38832        -1.42314
H         50.98506        39.76664        -2.31124
H         23.85330        75.05105        -3.99546
H         26.14602        75.11502        -3.05185
H         28.43821        75.17738        -2.23881
H         30.78416        75.20911        -1.50752
H         33.12623        75.22801        -0.99656
H         35.51910        75.25918        -0.41159
H         37.94873        75.24422         0.04543
H         40.34144        75.23956         0.59224
H         42.71236        75.25429         1.25375
H         45.10550        75.26125         1.41786
H         47.60162        75.30966         1.74255
H         49.99475        75.31115         1.10367
H         52.53106        75.27385         0.51084
H         54.74374        75.07896        -0.34072
H         57.05905        75.05607        -1.09763
H         59.33007        75.05156        -1.91471
H         61.67942        75.06425        -2.68963
H         63.97776        75.02966        -3.48804
H         66.36861        74.96153        -4.37883
H         22.63084        69.26840        -3.15542
H         21.60146        71.35819        -4.02878
H         21.78460        73.78220        -4.55440
H         24.85805        65.04128        -1.94516
H         23.71167        67.18418        -2.48897
H         27.24964        60.65236        -0.88895
H         25.88752        63.10034        -0.93579
H         29.59881        56.64993        -0.48439
H         28.44283        58.77976        -0.75328
H         31.96559        52.35046        -0.02215
H         30.77938        54.49857        -0.28852
H         34.36785        48.12418        -0.20940
H         33.15087        50.24245        -0.03734
H         36.84092        43.96775        -1.06500
H         35.57606        46.04506        -0.52453
H         39.26667        39.78486        -1.87977
H         38.05954        41.87294        -1.43886
H         41.63581        35.54354        -2.70138
H         40.45504        37.69131        -2.35699
H         44.98581        32.15973        -3.27581
H         42.85346        33.42218        -3.13524
H         47.14584        33.20913        -2.69435
H         48.39583        35.13794        -1.85491
H         49.74236        37.38606        -1.42329
H         50.39978        39.47682         0.48415
H         52.24646        41.41519        -0.40198
H         53.55710        43.46877        -0.03994
H         54.80028        45.81190        -0.35985
H         56.01892        47.92921         0.31498
H         57.26437        50.07262         0.16035
H         58.53777        52.21805         0.37736
H         59.75241        54.38173         0.12637
H         60.92361        56.56120        -0.05849
H         62.01279        58.69733        -0.63465
H         63.04952        60.79393        -1.38839
H         64.02925        62.88044        -2.25335
H         65.02334        65.03492        -3.29654
H         66.42196        67.08211        -3.17872
H         67.54213        69.21931        -3.65131
H         68.72769        71.36621        -3.98753
H         68.58426        73.81022        -4.36083
