         260
 CSIRO Nanostructure Databank - Neutral Graphene Oxide Data Set
C         30.29651        31.89666         1.01217
C         30.32218        33.16235         1.10629
C         30.43244        36.33138         0.98073
C         30.36294        37.56222         1.02357
C         30.52486        40.38997        -0.52810
C         30.61500        41.42179        -1.22175
C         32.56321        28.88554         0.65046
C         31.56379        29.59897         0.88478
C         32.67849        31.70301         0.67498
C         31.35086        30.98703         0.92188
C         32.63958        33.16080         0.25445
C         31.34654        33.98548         0.44694
C         32.73579        36.06442         0.64600
C         31.50242        35.42293         0.68068
C         32.80754        37.54871         0.99928
C         31.54182        38.51279         1.03794
C         32.93293        40.12320        -0.46253
C         31.59580        39.45529        -0.16043
C         33.00704        41.51805        -1.06413
C         31.74797        42.27728        -1.39655
C         33.02210        44.22406        -1.16398
C         31.96989        43.62014        -1.60517
C         35.41668        27.18653         0.14948
C         35.11983        28.60590        -0.04897
C         33.85481        29.37905         0.15772
C         35.10566        31.61056        -0.27171
C         33.92445        30.90104         0.36815
C         35.10638        33.12107        -0.30274
C         33.91808        33.91131         0.16581
C         35.18877        36.04720         0.02130
C         33.93457        35.28936         0.30766
C         35.24451        37.50908         0.27614
C         34.09161        38.29463         0.84255
C         35.48916        40.21295        -0.09842
C         34.13081        39.76900         0.40927
C         35.23873        41.63135         0.30907
C         34.25847        42.34214        -0.61464
C         34.98549        44.48018         0.56566
C         34.13396        43.81014        -0.49007
C         35.23110        45.93422         0.29823
C         37.72621        27.13351        -0.58231
C         36.48567        26.56999         0.09335
C         37.76894        28.58034        -0.05312
C         36.44429        29.36592         0.03273
C         37.71068        31.54250        -0.52204
C         36.42546        30.85824        -0.12687
C         37.71544        33.04281        -0.51923
C         36.42835        33.83711        -0.44256
C         37.82839        35.93820         0.05571
C         36.49287        35.31166        -0.22063
C         37.84913        37.37190         0.44532
C         36.57013        38.13015         0.53583
C         37.82753        40.30199         0.84537
C         36.60373        39.58708         0.34555
C         37.79618        41.79804         0.60249
C         36.47967        42.45765         0.60207
C         37.64786        44.64981         0.59038
C         36.39709        43.82865         0.57249
C         37.63638        46.05734         0.00006
C         36.26830        46.57249         0.14332
C         40.32147        24.35414        -0.66352
C         39.24323        25.06311        -0.66499
C         40.31088        27.14137        -0.83564
C         39.03860        26.40676        -0.50333
C         40.45094        28.55071        -0.24011
C         39.08749        29.30652        -0.11085
C         40.34322        31.52762        -0.59486
C         39.04195        30.76322        -0.50511
C         40.29957        32.99894        -0.25901
C         39.00391        33.75412        -0.19362
C         40.31130        35.95062         0.06559
C         38.99672        35.24794        -0.09563
C         40.33851        37.44828         0.14362
C         39.06492        38.19884         0.23364
C         40.27399        40.34706         0.11685
C         39.04815        39.55758         0.33604
C         40.32352        41.75335         0.73313
C         38.98542        42.48497         0.56315
C         40.25475        44.71954         0.23974
C         39.01087        43.96278         0.59160
C         40.25178        46.09634         0.12068
C         38.92632        46.78745        -0.15047
C         40.16344        48.84111         0.09680
C         39.10997        48.23886        -0.15951
C         42.88185        24.38483        -0.28241
C         41.59221        24.85938        -0.65803
C         42.97212        27.10558        -0.82471
C         41.63491        26.35714        -0.95402
C         42.96293        28.62887        -0.86785
C         41.63386        29.37511        -0.76793
C         42.90173        31.54015        -0.46310
C         41.62626        30.81140        -0.47668
C         42.88826        33.03622        -0.33773
C         41.57354        33.77052        -0.47993
C         42.93927        35.98317        -0.28900
C         41.57150        35.26166        -0.40943
C         42.78664        37.42072         0.21840
C         41.59521        38.14676        -0.37968
C         42.81405        40.37803         0.24939
C         41.57883        39.65204        -0.12452
C         42.82000        41.74641         0.19540
C         41.51866        42.47235         0.07083
C         42.84507        44.69826        -0.15767
C         41.50731        43.95657        -0.03586
C         42.75482        46.10461         0.43013
C         41.48741        46.86932         0.19006
C         42.76417        48.85576         0.45318
C         41.47764        48.28348         0.21073
C         43.87314        25.03327         0.10493
C         45.29786        27.18655         0.31408
C         44.21585        26.40515        -0.30938
C         45.35514        28.60450         0.28575
C         44.34893        29.39366        -0.57975
C         45.19196        31.50911         0.73161
C         44.06725        30.76623         0.08496
C         45.23165        33.00178         0.73250
C         43.95311        33.71296         0.49136
C         45.25592        35.89307         0.72582
C         43.94770        35.21525         0.56886
C         45.28147        37.37478         0.81859
C         43.98772        38.14131         0.72454
C         45.25554        40.20798        -0.02616
C         44.05600        39.66937         0.76631
C         45.30183        41.73524         0.07265
C         44.07593        42.49766         0.26918
C         45.34845        44.60542         0.49381
C         44.06625        43.89318         0.33025
C         45.43586        46.19218         0.54858
C         44.07898        46.84061         0.63058
C         43.86592        48.27946         0.47522
C         47.41226        27.19241         1.53828
C         46.39259        26.66293         0.99628
C         47.51011        28.59807         1.49411
C         46.45856        29.29962         0.85823
C         47.63053        31.58040         0.33392
C         46.50143        30.81058         1.07724
C         47.75568        33.03012         0.96521
C         46.39681        33.71715         0.88146
C         47.77124        35.79763         0.47281
C         46.42366        35.17920         0.82491
C         47.79889        37.31248         0.09739
C         46.58309        38.08520         0.64461
C         47.78892        40.12915        -0.29872
C         46.59899        39.62255         0.50000
C         47.73492        41.64021        -0.56279
C         46.49570        42.36729        -0.19908
C         47.74862        44.52440        -0.60296
C         46.61085        43.81028         0.06337
C         47.41296        45.88888        -0.77166
C         46.35009        46.53397        -0.61228
C         50.80759        29.59019         1.15047
C         49.40256        29.92331         1.16498
C         50.00333        31.70575        -0.59044
C         49.01542        30.93429         0.29872
C         50.11925        33.19061        -0.05059
C         48.80873        33.92913         0.26519
C         50.35778        35.91147         0.92502
C         49.04307        35.19659         1.07292
C         50.33825        37.44788         0.97962
C         49.05112        38.12197         0.56185
C         50.25009        40.36028         0.12829
C         49.06889        39.51502         0.04467
C         50.24244        41.71329        -0.52567
C         49.00383        42.38405        -0.65216
C         50.17867        44.30313        -1.33664
C         48.91512        43.81565        -0.90244
C         51.61261        30.08346         0.31194
C         52.36504        32.12504        -1.05023
C         51.51348        31.14805        -0.56896
C         52.27469        33.35025        -1.35105
C         51.05258        34.15200        -0.87606
C         52.36931        36.24470        -0.21482
C         51.40783        35.26737         0.05573
C         52.55560        37.47084        -0.05668
C         51.71917        38.23607         0.94455
C         52.67637        40.47265        -0.01028
C         51.58174        39.69845         0.56908
C         52.63478        41.61803        -0.50110
C         51.48686        42.38824        -0.84293
C         51.28870        43.71950        -1.27225
O         50.84388        40.44998         1.53645
O         44.91299        29.57070        -1.80972
O         40.88932        26.80566        -2.11843
O         34.14269        41.74932        -1.93602
O         46.28902        44.08930         1.46648
O         42.26188        29.04820        -2.05177
O         37.65228        32.28544        -1.76309
O         35.00601        37.04185        -1.06988
O         44.00469        26.59462        -1.72598
O         40.51460        36.62205         1.34293
O         33.67406        31.39018         1.71283
O         40.60427        41.62377         2.08653
O         38.24322        46.18034        -1.29630
O         32.40984        39.03032        -1.27359
O         34.82245        32.28994        -1.49956
O         40.83019        40.30529        -1.22765
O         38.50510        28.88545         1.15769
O         43.28598        32.42759        -1.58930
O         49.43149        37.94613         1.97605
O         36.47984        30.25359         1.19393
O         44.11068        30.88061         1.54036
O         41.45092        34.59329        -1.69310
O         48.59223        29.26435         2.05562
O         48.11825        34.84559        -0.72505
O         43.41133        34.42270         1.65778
O         33.66793        37.85218         2.15390
O         31.73465        33.46692        -0.84642
O         49.86431        35.34936         2.21916
O         34.29729        40.95103         1.37444
O         47.56982        40.63356        -1.64787
O         43.33670        46.28503         1.75705
O         34.28013        28.97286        -1.16388
O         37.19998        37.61626         1.76041
O         42.96619        37.61368         1.64021
O         41.27388        43.08402        -1.22680
O         39.64981        33.20905         1.03059
O         36.43677        34.75722        -1.57954
O         39.66880        31.00122        -1.79722
O         46.14409        37.73095         1.97237
O         38.40208        44.54065         1.81829
O         50.77903        33.07740         1.21502
H         50.10928        33.04820         1.94378
O         45.03856        39.78831        -1.37876
H         45.81653        40.07112        -1.91968
O         46.85995        40.17842         1.79707
H         46.16195        39.85244         2.41514
O         44.21677        40.04020         2.14917
H         43.51445        39.58683         2.66602
O         43.10178        44.90941        -1.56868
H         42.65046        44.17687        -2.05419
O         47.11046        31.73320        -0.98648
H         47.79589        32.12054        -1.57930
O         43.55252        36.05256        -1.58615
H         42.93180        35.66581        -2.24774
O         37.42090        27.27390        -1.96724
H         37.51780        26.40808        -2.41689
O         46.63979        30.97491         2.51203
H         45.76427        30.76231         2.90778
O         34.40728        44.25147         1.84299
H         33.51681        44.65745         1.87156
O         52.31445        38.14746         2.22061
H         51.96451        38.87516         2.77799
O         46.13394        46.56382         1.72242
H         45.48993        46.71215         2.44626
O         47.73803        37.41824        -1.33175
H         48.00955        36.55986        -1.72846
O         40.90507        28.29458         1.11986
H         40.10891        28.21516         1.70059
O         49.57486        31.77525        -1.94701
H         49.42569        30.86887        -2.29155
O         37.82198        40.17758         2.28700
H         37.77147        39.21980         2.51970
O         31.59158        39.31625         2.18184
H         31.96036        38.80374         2.93345
O         50.40885        34.67826        -2.02297
H         50.32033        33.96477        -2.69074
O         41.63304        37.93063        -1.80191
H         41.26656        38.73737        -2.23460
O         48.24791        32.95779         2.31098
H         47.67623        32.32762         2.82128
