         204
 CSIRO Nanostructure Databank - Neutral Graphene Oxide Data Set
C        -11.14725         0.61497        -0.29354
C         -9.91879         1.34949         0.18783
C         -8.65258         0.71155        -0.33542
C         -7.39569         1.42114         0.00852
C         -6.19472         0.65496         0.20562
C         -4.95286         1.36237         0.48217
C         -3.78573         0.68450         0.70173
C         -2.50450         1.38859         0.92492
C         -1.26397         0.66350         0.60916
C         -0.07837         1.46332         0.30906
C          1.22659         0.70784         0.10604
C          2.47239         1.46836         0.25792
C          3.69652         0.69054         0.05262
C          4.98290         1.44156        -0.00148
C          6.24992         0.69724         0.14937
C          7.45575         1.42813        -0.03426
C          8.67447         0.71796        -0.17991
C          9.89303         1.44608        -0.40631
C         11.10592         0.69105        -0.58674
C         -9.89528         2.84065        -0.06998
C         -8.70075         3.53545        -0.04085
C         -7.42644         2.81751         0.08543
C         -6.21107         3.55854         0.20141
C         -4.90766         2.82094         0.08534
C         -3.73483         3.60514         0.60325
C         -2.49166         2.88900         0.90856
C         -1.22094         3.61428         0.74392
C         -0.00006         2.91160         0.61238
C          1.24773         3.58669         0.57633
C          2.49544         2.84869         0.41994
C          3.76083         3.55681         0.47984
C          4.95955         2.89396         0.24865
C          6.21915         3.57966         0.13281
C          7.42572         2.86439        -0.07689
C          8.65189         3.57489        -0.31550
C          9.85918         2.84511        -0.47487
C         -8.64769         4.96941        -0.14274
C         -7.44798         5.67342        -0.06547
C         -6.19779         4.95797         0.13258
C         -4.95967         5.68977         0.19628
C         -3.72111         4.98996         0.47253
C         -2.48310         5.73163         0.60441
C         -1.26153         5.02183         0.74864
C          0.01644         5.72442         0.90125
C          1.28659         5.00928         0.72043
C          2.49126         5.74600         0.68163
C          3.80323         5.00764         0.91094
C          5.03303         5.71322         0.37868
C          6.20709         5.01703         0.09620
C          7.43650         5.71860        -0.23220
C          8.61727         4.99369        -0.41470
C         -7.39297         7.09428        -0.24628
C         -6.18834         7.78423        -0.25153
C         -4.94478         7.08655         0.00162
C         -3.70946         7.80631         0.00860
C         -2.48066         7.14413         0.33339
C         -1.26513         7.87008         0.25621
C          0.00058         7.25185         0.65910
C          1.27230         7.87235         0.29724
C          2.46993         7.15758         0.49530
C          3.73473         7.92830         0.45415
C          5.06275         7.17453         0.40961
C          6.25446         7.87198        -0.11310
C          7.40068         7.14480        -0.37485
C         -6.13207         9.20197        -0.52277
C         -4.94377         9.86506        -0.59142
C         -3.68696         9.19315        -0.34563
C         -2.46697         9.86591        -0.48155
C         -1.23352         9.21145        -0.21699
C          0.02286         9.87155        -0.38925
C          1.25057         9.23062        -0.16993
C          2.50418         9.90313        -0.39081
C          3.71111         9.30216        -0.09071
C          4.97022         9.95957        -0.32929
C          6.16620         9.29004        -0.33357
C        -11.14167        -0.67691        -0.65297
C         -9.91027        -1.54189        -0.85034
C         -8.62350        -0.72457        -0.72647
C         -7.29071        -1.46948        -0.68245
C         -6.21481        -0.73152         0.09879
C         -5.04189        -1.51744         0.47477
C         -3.73962        -0.78020         0.80110
C         -2.46991        -1.49083         0.55822
C         -1.24594        -0.72918         0.46700
C          0.01321        -1.44227         0.36148
C          1.22670        -0.74580         0.30467
C          2.49316        -1.41710         0.48810
C          3.69228        -0.75266         0.36837
C          5.00512        -1.41110         0.75307
C          6.24146        -0.68965         0.26496
C          7.45341        -1.41904         0.06634
C          8.66712        -0.70543        -0.16470
C          9.88784        -1.43118        -0.38153
C         11.10245        -0.67681        -0.57729
C         -9.89972        -2.78758         0.04950
C         -8.62286        -3.59521        -0.10417
C         -7.39628        -2.91215        -0.23976
C         -6.17890        -3.62696        -0.10972
C         -4.94914        -2.93088         0.09597
C         -3.71837        -3.61185         0.18408
C         -2.47573        -2.87736         0.36489
C         -1.22668        -3.59650         0.31147
C          0.00158        -2.89006         0.39467
C          1.22096        -3.61040         0.50134
C          2.46327        -2.87014         0.76978
C          3.78441        -3.63071         0.69546
C          5.01778        -2.88523         0.44702
C          6.19789        -3.56665         0.14581
C          7.44082        -2.84443         0.00387
C          8.65238        -3.55871        -0.24929
C          9.86717        -2.82743        -0.41129
C         -8.62785        -4.99076         0.01008
C         -7.42100        -5.75022        -0.04722
C         -6.17862        -5.04803        -0.07191
C         -4.93605        -5.74833        -0.09296
C         -3.69475        -5.02432         0.00221
C         -2.45053        -5.73875         0.04690
C         -1.21920        -5.01919         0.22095
C          0.01531        -5.72912         0.24532
C          1.24689        -5.01905         0.40677
C          2.50108        -5.73803         0.33814
C          3.73386        -5.05840         0.37049
C          4.96159        -5.72915         0.09295
C          6.18586        -5.00218         0.00597
C          7.41125        -5.70039        -0.24068
C          8.62052        -4.97153        -0.35181
C         -7.39075        -7.17018        -0.02568
C         -6.17392        -7.86611        -0.11706
C         -4.94845        -7.15517        -0.18747
C         -3.67301        -7.87811        -0.51845
C         -2.42954        -7.14377        -0.08450
C         -1.21016        -7.85652        -0.01620
C          0.02067        -7.15290         0.12209
C          1.25772        -7.86519         0.07312
C          2.49110        -7.15636         0.12614
C          3.72051        -7.85633        -0.04267
C          4.95134        -7.14444        -0.08557
C          6.18744        -7.83893        -0.30589
C          7.38408        -7.11909        -0.37652
C         -6.12747        -9.32065        -0.07804
C         -4.94998       -10.00603        -0.04545
C         -3.67047        -9.33740        -0.13182
C         -2.47506       -10.00127        -0.03401
C         -1.20483        -9.30171        -0.07171
C          0.00672        -9.98262        -0.09591
C          1.25547        -9.28936        -0.07533
C          2.48891        -9.97339        -0.19787
C          3.70801        -9.28222        -0.20934
C          4.96531        -9.95962        -0.39755
C          6.14592        -9.27287        -0.44999
O         -9.99357        -2.34232         1.40749
H         -9.86714        -3.11112         1.99977
O          3.14389        -3.27753         2.00886
O         -4.57501        -1.32328         1.86467
O         -4.65859         2.74043        -1.38670
H         -4.76301         3.64734        -1.74836
O          3.98931         5.00226         2.37395
H          4.10284         5.94730         2.63490
O         -9.95949        -2.04074        -2.20473
H         -9.73169        -1.28918        -2.79429
O         -9.86124         1.17742         1.64019
H        -10.67819         1.55993         2.02237
O         -6.77759        -1.52164        -2.04891
H         -7.05621        -0.67756        -2.47528
O          0.00595         6.67942         2.00536
O          5.06063        -1.29898         2.22430
H          4.38587        -1.93594         2.57138
O         -3.61614        -7.87763        -2.00064
H         -2.79467        -8.35022        -2.25533
O          4.54072         7.76246         1.67371
O          4.32387         1.02486        -1.26611
O          0.43639         1.16108        -1.04797
O         -8.64195         0.32415        -1.76575
O         -2.50422         2.12325         2.21020
H         12.04134        -1.22998        -0.72883
H         12.04664         1.23837        -0.74750
H         10.79210         3.39767        -0.66430
H          9.55005         5.53412        -0.63640
H          8.30798         7.66519        -0.71773
H          7.08905         9.83112        -0.59023
H          4.94931        11.02896        -0.58709
H          2.49154        10.92755        -0.79268
H          0.02249        10.91660        -0.73364
H         -2.46004        10.91912        -0.79964
H         -4.92190        10.93853        -0.83097
H         -7.07629         9.73621        -0.70509
H         -8.33141         7.64089        -0.42521
H         -9.58720         5.52072        -0.29963
H        -10.84752         3.39191        -0.12225
H        -12.10814         1.15333        -0.23425
H        -12.09541        -1.15703        -0.92665
H        -10.78996        -3.43149        -0.20190
H         -9.58830        -5.52163         0.10104
H         -8.33463        -7.73241         0.03635
H         -7.08086        -9.86589        -0.01323
H         -4.95521       -11.10155         0.06308
H         -2.46248       -11.09185         0.11973
H          0.01094       -11.08194        -0.14727
H          2.48601       -11.06737        -0.31727
H          4.95787       -11.05366        -0.51291
H          7.09222        -9.81180        -0.60541
H          8.32903        -7.65489        -0.55228
H          9.55685        -5.51552        -0.54636
H         10.80173        -3.38099        -0.58793
