         204
 CSIRO Nanostructure Databank - Neutral Graphene Oxide Data Set
C        -11.01492         0.70004         0.73319
C         -9.83739         1.43536         0.34219
C         -8.65475         0.69992        -0.00654
C         -7.53629         1.42633        -0.62598
C         -6.27981         0.65771        -1.01837
C         -5.03354         1.47993        -1.40063
C         -3.72938         0.68489        -1.24240
C         -2.45634         1.45370        -1.08693
C         -1.22569         0.76739        -0.54533
C          0.01307         1.50370        -1.03093
C          1.22736         0.71674        -1.31693
C          2.57728         1.45989        -1.38035
C          3.76810         0.71316        -0.97570
C          4.94635         1.44488        -0.57297
C          6.09293         0.74326        -0.23757
C          7.22640         1.45614         0.36069
C          8.45137         0.68618         0.76487
C          9.71788         1.43381         0.93079
C         10.90260         0.64828         1.19879
C         -9.83065         2.82543         0.27729
C         -8.62893         3.55967         0.00245
C         -7.44945         2.88129        -0.41229
C         -6.19988         3.56636        -0.48543
C         -4.97931         2.87463        -0.76072
C         -3.74740         3.58454        -0.70378
C         -2.49102         2.92329        -0.89017
C         -1.26925         3.60162        -0.80079
C         -0.01435         2.87703        -1.03649
C          1.22676         3.68134        -1.17948
C          2.56200         2.95361        -1.26379
C          3.75978         3.63394        -0.73362
C          4.92893         2.90006        -0.47345
C          6.14690         3.60860        -0.18176
C          7.32061         2.90163         0.18894
C          8.53960         3.58411         0.52845
C          9.71305         2.80656         0.89583
C         -8.60387         4.95723         0.18759
C         -7.39660         5.67380         0.08811
C         -6.17631         4.97257        -0.19457
C         -4.94763         5.68478        -0.17831
C         -3.72179         4.98934        -0.40637
C         -2.48236         5.69189        -0.33672
C         -1.24969         5.00869        -0.54259
C         -0.00460         5.72070        -0.43134
C          1.22906         5.06479        -0.65595
C          2.46234         5.74408        -0.46593
C          3.71707         5.03807        -0.50664
C          4.93772         5.73530        -0.23066
C          6.15659         5.02570        -0.18046
C          7.47370         5.75830        -0.17304
C          8.60012         4.96302         0.41962
C         -7.36975         7.07716         0.31923
C         -6.16942         7.78517         0.32220
C         -4.93608         7.08851         0.09301
C         -3.70502         7.79160         0.15550
C         -2.47707         7.09848        -0.04333
C         -1.24655         7.80170         0.06969
C         -0.00967         7.11483        -0.10485
C          1.21991         7.81586         0.04053
C          2.45558         7.13020        -0.10724
C          3.68782         7.82394         0.13500
C          4.91487         7.14219         0.06269
C          6.15529         7.81817         0.40417
C          7.35648         7.14970         0.37867
C         -6.13454         9.20354         0.57795
C         -4.95207         9.88033         0.63273
C         -3.69595         9.20125         0.44000
C         -2.48250         9.88208         0.53780
C         -1.24672         9.20582         0.37121
C         -0.01595         9.88654         0.51584
C          1.20733         9.21722         0.37433
C          2.44693         9.89207         0.58852
C          3.65728         9.22155         0.50113
C          4.90443         9.88630         0.80397
C          6.08709         9.21623         0.78195
C        -10.99308        -0.66035         0.80165
C         -9.79056        -1.40620         0.52267
C         -8.60877        -0.69447         0.08859
C         -7.37533        -1.41329        -0.13968
C         -6.19176        -0.74480        -0.55485
C         -4.93799        -1.42811        -0.53759
C         -3.72249        -0.74434        -0.82994
C         -2.48067        -1.41593        -0.77191
C         -1.23068        -0.71072        -0.83625
C         -0.01601        -1.39375        -0.93154
C          1.24362        -0.72541        -1.02115
C          2.47903        -1.42279        -0.97566
C          3.73451        -0.70453        -0.90284
C          4.93884        -1.44027        -0.66271
C          6.24726        -0.69679        -0.64618
C          7.36858        -1.44369         0.03983
C          8.48432        -0.77408         0.51632
C          9.68609        -1.47971         0.87930
C         10.87279        -0.71488         1.21673
C         -9.75893        -2.78417         0.67772
C         -8.54745        -3.51606         0.50729
C         -7.34454        -2.81725         0.14450
C         -6.12072        -3.53166         0.08058
C         -4.90052        -2.83238        -0.20725
C         -3.67846        -3.53575        -0.19993
C         -2.45096        -2.84490        -0.51572
C         -1.25721        -3.54670        -0.57464
C         -0.04005        -2.86463        -1.03024
C          1.26164        -3.62084        -1.05564
C          2.52293        -2.85765        -0.92631
C          3.72573        -3.55196        -0.82093
C          4.95391        -2.84351        -0.64118
C          6.18278        -3.57902        -0.37531
C          7.34401        -2.87836         0.01233
C          8.51766        -3.59278         0.46666
C          9.68871        -2.86454         0.84514
C         -8.51684        -4.90389         0.73005
C         -7.31311        -5.63197         0.64718
C         -6.09729        -4.93509         0.33823
C         -4.86921        -5.65079         0.30869
C         -3.64439        -4.95299         0.05540
C         -2.42591        -5.66285         0.07769
C         -1.13706        -4.90020         0.05783
C          0.08427        -5.69651        -0.33710
C          1.24144        -5.04913        -0.65162
C          2.55799        -5.77450        -0.49891
C          3.74464        -5.03362        -1.14130
C          5.02622        -5.73606        -0.73322
C          6.17590        -5.02580        -0.38911
C          7.35421        -5.73114         0.11275
C          8.48983        -4.98422         0.53613
C         -7.27315        -7.03320         0.89709
C         -6.07325        -7.73898         0.87267
C         -4.84319        -7.04788         0.58399
C         -3.61213        -7.75213         0.58682
C         -2.39008        -7.05733         0.33029
C         -1.14883        -7.77817         0.30701
C          0.07621        -7.13777        -0.07287
C          1.24033        -7.88757        -0.26424
C          2.41529        -7.22814        -0.98181
C          3.74537        -7.98612        -0.89276
C          5.03525        -7.19523        -0.84045
C          6.29769        -7.93995        -0.26901
C          7.34066        -7.11170         0.29471
C         -6.02108        -9.15453         1.14778
C         -4.83802        -9.83184         1.15050
C         -3.58899        -9.16212         0.87468
C         -2.37845        -9.84674         0.87805
C         -1.14889        -9.18693         0.56799
C          0.05800        -9.90512         0.50225
C          1.26491        -9.28717         0.07130
C          2.46523       -10.01372         0.03401
C          3.73205        -9.41451        -0.39888
C          4.97217        -9.99661         0.15968
C          6.13136        -9.31939         0.23454
O          6.69169        -0.61966        -2.06087
H          5.90587        -0.39902        -2.60647
O         -7.32884         0.90415        -1.99383
O          0.52173        -3.38516        -2.30478
O          3.66071        -5.09489        -2.58387
H          3.09149        -5.86407        -2.84162
O          6.06791        -7.74557        -1.69734
O          2.85731        -5.81370         0.92337
H          2.02899        -6.02513         1.40564
O         -0.85371        -4.59542         1.50051
H         -1.69065        -4.26305         1.89230
O         -2.83632         0.94676        -2.39966
O          1.91058         1.00005        -2.58418
O          3.78843        -9.07449        -1.86246
O         -5.18407         1.78638        -2.80649
H         -4.27826         1.78095        -3.19897
O          7.45500         1.03272         1.79761
O          1.97263         3.58753        -2.43982
O         -1.26981         0.91616         0.91070
H         -0.52564         0.40517         1.29237
O          2.04740        -7.21128        -2.38782
H          2.34062        -8.08050        -2.75332
O          7.83824         5.94063        -1.61233
H          7.09481         6.42321        -2.03419
H         11.78949        -1.27576         1.45255
H         11.84099         1.18088         1.41397
H         10.65125         3.35407         1.07467
H          9.53918         5.48898         0.64946
H          8.28284         7.68670         0.63441
H          7.02508         9.73202         1.03474
H          4.87306        10.95081         1.07946
H          2.43135        10.95715         0.86442
H         -0.02092        10.95826         0.76442
H         -2.47825        10.95932         0.76151
H         -4.93748        10.96117         0.83592
H         -7.08671         9.73061         0.73669
H         -8.31552         7.60272         0.51809
H         -9.52768         5.48405         0.46748
H        -10.74138         3.38602         0.53481
H        -11.93151         1.25972         0.96932
H        -11.89343        -1.21754         1.09953
H        -10.66798        -3.32159         0.98632
H         -9.44771        -5.42671         0.99548
H         -8.21126        -7.56029         1.12693
H         -6.96302        -9.68081         1.36169
H         -4.81592       -10.91047         1.36513
H         -2.36271       -10.92621         1.09102
H          0.06401       -10.97892         0.74052
H          2.47526       -11.05468         0.38886
H          4.90070       -11.00765         0.58922
H          7.00173        -9.77913         0.72819
H          8.12451        -7.58578         0.90454
H          9.37201        -5.52733         0.90643
H         10.59730        -3.42217         1.11736
