         621
 CSIRO Nanostructure Databank - Neutral Graphene Oxide Data Set
C          5.91569        31.81134         0.79144
C          5.91822        33.15586         1.00789
C          8.40600        27.60953         0.05408
C          8.36163        28.96129         0.30650
C          7.14538        29.70546         0.35156
C          8.35905        31.84853         0.44270
C          7.14094        31.09566         0.52549
C          8.36203        33.23887         0.55538
C          7.12607        33.94311         0.88337
C          8.25163        36.15473         0.78015
C          7.10717        35.30145         1.12331
C          8.32618        37.54120         1.26484
C         11.17906        23.91734        -1.27087
C         10.31229        24.27820        -0.28108
C          9.42868        25.47357        -0.24551
C         10.88307        27.53054         0.35249
C          9.62080        26.81174         0.05970
C         10.89145        28.94134         0.46764
C          9.60964        29.70521         0.70746
C         10.88646        31.85071         0.48720
C          9.63036        31.10438         0.09447
C         10.83443        33.27163         0.55795
C          9.61109        33.96204         0.50441
C         10.83098        36.23569         0.47251
C          9.56376        35.43348         0.41112
C         10.78653        37.69973         0.87948
C          9.48634        38.29150         1.28954
C         10.69621        40.38236         1.82926
C          9.50231        39.66675         1.69477
C         10.74171        41.80272         1.90341
C         13.48034        19.45961        -2.15682
C         13.42045        20.66330        -1.20041
C         12.22014        21.54924        -1.46805
C         13.47438        23.42790        -0.61698
C         12.23783        22.86697        -1.09467
C         13.41840        24.82529        -0.17828
C         12.31272        25.38041         0.68461
C         13.32647        27.56566         0.68929
C         12.13082        26.86104         0.51187
C         13.34047        28.98863         0.68298
C         12.09746        29.68530         0.58684
C         13.34588        31.86838         0.74050
C         12.08725        31.13908         0.63756
C         13.36079        33.25375         0.68901
C         12.09784        34.00439         0.79563
C         13.38125        36.29184         0.65757
C         12.10490        35.50892         0.78153
C         13.34081        37.74094         1.08801
C         12.02069        38.34991         1.37270
C         13.19185        40.37066         2.05760
C         11.96624        39.66203         1.81845
C         13.21310        41.75094         1.83256
C         11.95402        42.49143         1.76319
C         13.16464        44.55135         1.16704
C         11.99686        43.90439         1.59750
C         13.24092        45.93889         0.96617
C         16.00341        15.15609        -2.31781
C         16.00328        16.55701        -2.23927
C         14.77790        17.30185        -2.22283
C         15.98532        19.34585        -1.70687
C         14.75885        18.66215        -2.00097
C         15.96833        20.73636        -1.32448
C         14.73930        21.42103        -1.16358
C         15.97240        23.50879        -0.60974
C         14.72756        22.78662        -0.78319
C         15.97960        24.87339        -0.13029
C         14.68797        25.57787         0.02087
C         15.84999        27.56632         0.91076
C         14.58733        26.76523         0.96653
C         15.79272        28.94439         0.98620
C         14.57339        29.69054         0.85994
C         15.81302        31.81591         0.96612
C         14.60158        31.12751         0.86890
C         15.90232        33.27021         0.78968
C         14.62732        34.01723         0.57194
C         15.86339        36.17854         1.30342
C         14.67328        35.52410         0.69463
C         15.76515        37.58920         1.72164
C         14.56342        38.31726         1.67602
C         15.71783        40.54378         2.61408
C         14.41771        39.58232         2.46723
C         15.68180        41.73620         1.66644
C         14.44344        42.39776         1.51249
C         15.60254        44.41851         0.53924
C         14.31108        43.67300         0.71527
C         15.61363        45.76381         0.28968
C         14.41855        46.58293         0.49394
C         15.63984        48.69619        -0.03557
C         14.46804        47.98088         0.34089
C         15.71501        50.08537        -0.09034
C         18.30381        10.72531        -2.33729
C         17.98195        12.04629        -2.73630
C         17.06576        12.97269        -2.24848
C         18.45181        15.11255        -2.56824
C         17.18656        14.39901        -2.44950
C         18.46108        16.52346        -2.31873
C         17.25558        17.24727        -2.13928
C         18.42047        19.36140        -1.51323
C         17.22149        18.65709        -1.80740
C         18.44460        20.71821        -1.16203
C         17.20407        21.43154        -1.09691
C         18.45107        23.58623        -0.80356
C         17.18533        22.82718        -0.80899
C         18.44101        24.97029        -0.16244
C         17.14091        25.51698         0.27081
C         18.30473        27.48892         1.17282
C         17.11349        26.86101         0.84050
C         18.29900        28.90003         1.58928
C         17.02318        29.65341         1.35599
C         18.36073        31.82179         1.41951
C         17.09000        31.10265         1.06994
C         18.21233        33.20318         2.02206
C         17.13224        34.01655         1.29557
C         18.11090        36.06568         2.37151
C         16.97137        35.43871         1.65842
C         18.18077        37.52855         2.23380
C         16.95730        38.24570         2.12133
C         18.17960        40.32183         1.78499
C         17.05169        39.69135         2.56161
C         18.14567        41.61678         1.28498
C         16.87601        42.31406         1.19179
C         18.14612        44.32468         0.24250
C         16.82987        43.59566         0.46847
C         18.14407        45.76768         0.00565
C         16.84748        46.42405        -0.20301
C         18.14617        48.61397        -0.46953
C         16.84675        47.92180        -0.40055
C         18.15318        50.01869        -0.60101
C         16.92665        50.77523        -0.44474
C         18.15931        52.85334        -0.97057
C         16.96304        52.16421        -0.59515
C         18.19234        54.25707        -1.13386
C         20.68064         6.51684        -2.03859
C         20.72983         7.91331        -2.22342
C         19.57254         8.69134        -2.33030
C         20.84983        10.81386        -2.68789
C         19.56959        10.10476        -2.51617
C         20.93095        12.20445        -2.83722
C         19.81826        13.07731        -3.09999
C         20.99662        15.09559        -2.42283
C         19.70825        14.41383        -2.70972
C         21.03975        16.53460        -2.05893
C         19.74271        17.27773        -2.19301
C         20.83927        19.21199        -0.87241
C         19.71467        18.69018        -1.71416
C         20.90536        20.68360        -0.69801
C         19.72346        21.37951        -0.89713
C         21.02896        23.53186        -0.40819
C         19.75254        22.84837        -0.88024
C         20.89830        24.87473         0.20755
C         19.70416        25.50900         0.38450
C         20.81198        27.56263         1.35641
C         19.58121        26.70452         1.31328
C         20.81003        28.91402         1.69341
C         19.56801        29.67569         1.66406
C         20.87042        31.83302         1.74843
C         19.56212        31.03640         1.77457
C         20.76007        33.26011         2.27771
C         19.53188        33.92768         2.20791
C         20.66341        36.12195         2.69721
C         19.41974        35.33871         2.59899
C         20.66529        37.49544         2.41560
C         19.41827        38.16478         2.16401
C         20.70135        40.25449         1.55585
C         19.40840        39.50281         1.50077
C         20.66184        41.61610         1.17919
C         19.40937        42.25603         0.97494
C         20.68382        44.44728         0.51978
C         19.38674        43.70437         0.76872
C         20.61142        45.77711        -0.10616
C         19.34778        46.45795        -0.18216
C         20.57830        48.51850        -0.80441
C         19.34392        47.86427        -0.51010
C         20.57084        49.91809        -0.99219
C         19.38022        50.68366        -0.89332
C         20.52721        52.76616        -1.62517
C         19.36833        52.10176        -1.14623
C         20.52275        54.14316        -1.86343
C         19.37217        54.93464        -1.53159
C         20.68197        57.06374        -1.73046
C         19.46798        56.35858        -1.51691
C         20.77158        58.44925        -1.66056
C         22.97258         3.61137        -1.30302
C         21.79403         4.33316        -1.63285
C         23.15680         6.32265        -2.12156
C         21.83632         5.70211        -1.91454
C         23.26021         7.80359        -2.01810
C         22.02140         8.63017        -2.13190
C         23.36338        10.65769        -2.52205
C         22.10824        10.07094        -2.49807
C         23.49519        12.12866        -2.59310
C         22.22956        12.90252        -2.70326
C         23.40645        14.90281        -1.56996
C         22.15954        14.24370        -2.04230
C         23.40306        16.35852        -1.23069
C         22.18100        17.05985        -1.27514
C         23.26158        19.04604        -0.05541
C         22.04738        18.37472        -0.62344
C         23.31741        20.52154         0.03542
C         22.14866        21.30993        -0.25487
C         23.35672        23.30072         0.57378
C         22.19093        22.69813        -0.01154
C         23.36428        24.68431         0.91744
C         22.17562        25.50562         0.62638
C         23.23546        27.36999         2.02356
C         22.10599        26.89123         1.19454
C         23.18876        28.84344         2.44504
C         22.00436        29.59453         2.05005
C         23.20764        31.69357         2.90933
C         21.94439        31.00146         2.43114
C         23.17497        33.19899         3.05813
C         21.93466        33.93003         2.71449
C         23.20118        36.17074         3.20969
C         21.90056        35.37313         3.01449
C         23.10255        37.72441         3.08103
C         21.89972        38.24208         2.31635
C         23.18358        40.24367         1.55378
C         21.91306        39.57845         1.86075
C         23.14536        41.56565         0.92555
C         21.91796        42.29881         0.90078
C         23.08477        44.22826        -0.06753
C         21.92078        43.64372         0.46172
C         22.99843        45.55385        -0.72101
C         21.78577        46.39284        -0.55681
C         23.02993        48.40771        -1.33829
C         21.80069        47.76124        -0.92255
C         23.04505        49.78657        -1.58469
C         21.84855        50.58339        -1.26679
C         22.95539        52.54556        -2.46376
C         21.80862        52.02341        -1.67251
C         22.96274        54.02107        -2.69563
C         21.72125        54.81599        -2.40351
C         23.21356        56.89035        -2.28578
C         21.85224        56.29964        -2.24584
C         23.34694        58.32719        -1.99550
C         22.06620        59.15001        -1.73182
C         23.37331        61.15499        -2.33202
C         22.15959        60.56910        -2.05816
C         24.22161         4.18677        -1.27344
C         25.64484         6.31951        -1.44635
C         24.43606         5.54000        -1.77982
C         25.77014         7.65856        -1.74118
C         24.60246         8.39381        -2.31527
C         25.94324        10.56789        -2.18190
C         24.64204         9.87586        -2.49661
C         25.96327        12.04991        -1.97762
C         24.69370        12.82026        -2.03696
C         25.93679        14.91151        -1.52703
C         24.67543        14.14650        -1.70252
C         25.89407        16.33743        -1.01204
C         24.58291        16.95033        -0.73571
C         25.82215        19.00493         0.12199
C         24.56028        18.27019        -0.08474
C         25.77491        20.36353         0.51641
C         24.52845        21.12687         0.43959
C         25.74601        23.17085         1.21330
C         24.55250        22.52968         0.73696
C         25.70578        24.52077         1.61195
C         24.52173        25.30258         1.45815
C         25.67976        27.41311         2.20066
C         24.52034        26.69069         1.87842
C         25.68862        28.81655         2.43760
C         24.47025        29.56567         2.56792
C         25.74805        31.66392         2.83436
C         24.46220        30.94829         2.73305
C         25.77060        33.15653         3.06176
C         24.48786        33.96672         3.19079
C         25.70581        36.13393         2.93221
C         24.51701        35.46079         3.03663
C         25.73820        37.62556         2.76665
C         24.43475        38.38221         2.66501
C         25.61631        40.04959         1.12041
C         24.38790        39.60953         1.82065
C         25.57062        41.38425         0.36618
C         24.32382        42.17712         0.43337
C         25.50984        44.13334        -0.59187
C         24.30379        43.50756        -0.07859
C         25.54341        45.47188        -0.98024
C         24.27526        46.21277        -1.16073
C         25.46909        48.32987        -1.63903
C         24.27820        47.67858        -1.37668
C         25.46474        49.70048        -2.08164
C         24.23622        50.45772        -2.04291
C         25.39093        52.42222        -3.14205
C         24.22319        51.78937        -2.47727
C         25.38993        53.95267        -3.37197
C         24.32464        54.65343        -2.51289
C         25.62279        56.80754        -2.78531
C         24.32979        56.16232        -2.61592
C         25.69436        58.21146        -2.77693
C         24.56765        59.01366        -2.45649
C         24.57162        60.41012        -2.49305
C         26.95593         8.40386        -1.42460
C         28.24097        10.47848        -1.17476
C         27.05854         9.78286        -1.57067
C         28.30956        11.87100        -1.01454
C         27.01637        12.64858        -1.06363
C         28.43111        14.79947        -0.88436
C         27.20241        14.12049        -1.38744
C         28.33632        16.19937        -0.40116
C         27.11552        16.91810        -0.40779
C         28.22217        18.91223         0.54690
C         27.04416        18.27078         0.08783
C         28.19009        20.26606         0.91716
C         26.98996        21.01831         0.89084
C         28.15950        23.02589         1.76857
C         26.99851        22.42210         1.29408
C         28.16661        24.39367         2.31233
C         26.87489        25.14865         2.26365
C         28.22513        27.34977         2.29255
C         26.92579        26.65745         2.44505
C         28.16698        28.79741         2.11222
C         26.95202        29.51538         2.36036
C         28.11050        31.64654         1.97014
C         26.96509        30.93522         2.37474
C         28.04315        33.13120         1.86617
C         27.09932        33.88630         2.81682
C         28.34036        36.07570         2.83060
C         26.96502        35.41956         2.42946
C         28.34129        37.58392         2.46147
C         27.02943        38.30791         2.32893
C         28.09219        40.19547         1.04657
C         26.95456        39.54538         1.49005
C         28.07047        41.46622         0.31894
C         26.84624        42.05850         0.05345
C         28.03199        44.03714        -1.09109
C         26.74392        43.33506        -0.68100
C         27.98965        45.49473        -1.32266
C         26.77233        46.15479        -1.28132
C         27.93131        48.18558        -2.14292
C         26.78842        47.66891        -1.30550
C         27.72658        49.36820        -2.83726
C         26.63148        50.25288        -2.62948
C         27.99234        52.41539        -3.13310
C         26.69943        51.63675        -3.17976
C         27.91560        53.83422        -3.07196
C         26.73986        54.59771        -3.09107
C         26.78330        55.99584        -2.95240
C         29.48269        12.54061        -0.61604
C         30.70717        14.59279         0.03089
C         29.55874        13.94740        -0.41850
C         30.73501        16.01067         0.25157
C         29.50149        16.74750         0.17451
C         30.76170        18.77266         1.04032
C         29.44806        18.10412         0.72338
C         30.77871        20.25991         1.06336
C         29.47781        20.97921         1.11738
C         30.75784        22.96880         2.11582
C         29.44008        22.29144         1.82378
C         30.86810        24.46577         2.46369
C         29.49223        25.17553         2.47041
C         30.61640        27.30088         1.65660
C         29.41748        26.63723         2.22316
C         30.55795        28.79398         1.41378
C         29.32395        29.53161         1.76587
C         30.49940        31.64370         1.13108
C         29.28834        30.93824         1.62792
C         30.53393        33.15749         1.13080
C         29.28332        33.90521         1.52059
C         30.75495        35.65424         2.28523
C         29.45892        35.25144         2.13331
C         30.80326        37.81171         2.16726
C         29.54011        38.25406         1.88491
C         30.69114        40.38797         1.12251
C         29.41057        39.66656         1.46648
C         30.60463        41.62520         0.30760
C         29.32806        42.15989        -0.03433
C         30.49871        44.13977        -0.96788
C         29.30630        43.42221        -0.67790
C         30.45648        45.49186        -1.47514
C         29.23564        46.19026        -1.60227
C         30.45693        48.24843        -2.30059
C         29.20844        47.54041        -2.08227
C         30.54808        49.69367        -2.44711
C         29.56394        50.45999        -3.04336
C         29.26585        51.85236        -2.93379
C         31.95565        16.67299         0.51844
C         33.22011        18.79581         0.82928
C         32.03128        18.06580         0.77092
C         33.27870        20.19650         1.16829
C         32.04582        20.92789         1.45294
C         33.28221        23.03176         1.84784
C         32.02671        22.26174         1.76407
C         33.17659        24.48262         1.55114
C         31.99324        25.16950         1.72654
C         33.10422        27.35217         1.49874
C         31.94470        26.61676         1.63893
C         33.09519        28.83590         1.54933
C         31.82251        29.56228         1.33524
C         33.00470        31.69492         0.91252
C         31.80266        30.93236         1.17498
C         33.03704        33.08690         0.85121
C         31.85143        33.83759         1.19814
C         33.25831        35.93064         1.66074
C         31.93618        35.14168         1.62595
C         33.17362        37.44953         1.31173
C         32.00728        38.28182         1.51627
C         33.18734        40.29267         0.77707
C         31.94609        39.60434         1.08298
C         33.12064        41.71836         0.25463
C         31.79038        42.27255        -0.08734
C         32.98519        44.17276        -1.16003
C         31.75544        43.52106        -0.74878
C         32.91875        45.47953        -1.66534
C         31.68648        46.16881        -1.77465
C         31.65339        47.53709        -2.13485
C         34.48436        20.87919         1.15152
C         35.73591        23.08924         1.04486
C         34.58002        22.29794         1.50234
C         35.68175        24.46110         0.92652
C         34.36772        25.15855         1.02287
C         35.67170        27.36125         1.11965
C         34.34597        26.67542         1.07566
C         35.68233        28.86539         1.14040
C         34.37584        29.59145         1.31301
C         35.45693        31.61428         0.13689
C         34.24402        30.92539         0.65543
C         35.37113        33.11628        -0.17343
C         34.24346        33.84016         0.56711
C         35.51297        35.95061         0.46851
C         34.32857        35.20630         0.82495
C         35.55594        37.33367         0.56913
C         34.34859        38.09310         0.84381
C         35.57580        40.16878         0.16190
C         34.39218        39.49628         0.59566
C         35.52274        41.50856        -0.31606
C         34.32571        42.24014        -0.42088
C         34.22562        43.48597        -1.06052
C         36.83594        25.23122         0.57441
C         38.02063        27.38531         0.33711
C         36.86235        26.63458         0.60957
C         38.03495        28.81263         0.30301
C         36.84116        29.56400         0.55203
C         37.95532        31.60210        -0.17496
C         36.78431        30.93194         0.23889
C         37.89532        33.04424        -0.44196
C         36.71151        33.78977         0.15117
C         38.02340        35.93085         0.06471
C         36.68400        35.27484        -0.23826
C         38.02052        37.32664         0.26517
C         36.80357        38.04992         0.32375
C         36.79435        39.43866         0.14455
C         39.21005        29.51769        -0.06481
C         40.42886        31.65802        -0.41737
C         39.19498        30.90525        -0.24800
C         40.45740        33.01217        -0.45126
C         39.21959        33.81144        -0.50982
C         39.20107        35.20740        -0.06844
O         20.69739        23.42848        -1.82982
O         30.03930        22.23175         3.16700
O         22.90614        27.74409         3.38571
O         13.43827        37.32627        -0.33838
O         17.42098        29.26022         2.72520
O         34.58039        30.84908        -0.78539
O         28.78233        24.62208         3.61614
O         20.92605        18.43286         0.37309
O         18.40469        35.54345         3.71824
O         28.22018        33.66989         0.52058
O         30.24812        20.93540        -0.14749
O         23.72320        18.34209         1.14233
O         30.34283        32.40850        -0.11020
O         23.08794        12.76874        -3.87266
O         12.03784        34.82318         2.07249
O         17.51482        43.55510        -0.83686
O         25.91534        32.24946         4.19438
O         18.44287        24.78063        -1.62531
O         22.21256        51.66893        -0.30537
O         22.23512        31.12874         3.85665
O         28.21226        14.53014        -2.33172
O         16.96392        33.74063        -0.10822
O         19.94788        18.40776        -3.12880
O         34.19489        22.63427         2.90551
O         28.63769        49.73375        -3.82629
O         22.44870        35.71830         4.35067
O         14.77734        34.86977        -0.61618
O         26.04925        16.01616        -2.46264
O         15.60435        41.10976         3.88008
O          8.67268        35.93264        -0.62090
O         35.98617        28.08095         2.34566
O         34.13223        25.96006        -0.18735
O         27.27399        43.23675        -2.05478
O         30.08087        40.54964         2.45406
O         26.41958        11.48380        -3.23174
O         23.96070         5.74932        -3.16925
O         16.65630        47.01209        -1.54499
O         22.47227        14.18405        -0.62181
O         23.40862        45.51858        -2.13792
O         13.91286        25.76868        -1.20181
O         22.66783         8.35467        -0.80420
O         11.92942        24.80075         1.70252
O         22.96030        58.69972        -0.63556
O         24.75539         8.94923        -3.64699
O         25.85194        51.75694        -4.37303
O         23.73608        33.57173         4.36561
O         26.64759        25.76223         3.57325
O         25.41300        40.10536        -0.33732
O         21.22352        31.93608         0.40129
O         25.25220        38.44251         3.88904
O         20.02753        44.45602         1.84823
O         21.42851        16.07096        -3.42706
O         30.35301        27.85078         0.29822
O         22.50364        26.68633        -0.21197
O         33.34301        41.48684         1.67545
O         38.39004        33.51640        -1.70710
O         18.76328        12.51912        -3.81432
O         21.46063        55.70470        -3.54642
O         29.97622        18.18781         2.11876
O         18.03560        31.55637         0.02880
O         22.71291        53.11827        -3.80086
O         30.98855        36.77531         3.08671
O         33.85109        29.48931         2.65716
O         10.89902        37.26260        -0.53039
O         27.85355        38.43390         3.55423
O         13.39173        19.91068        -3.51640
H         14.22206        20.37645        -3.74649
O         26.76020        35.67471         1.02103
H         27.29309        35.04464         0.46919
O         13.23856        20.08842         0.13396
H         13.09047        20.82622         0.76273
O         13.95250        43.21221        -0.63765
H         13.97531        43.99087        -1.23426
O         26.47303        12.59658         0.29016
H         25.54702        12.92219         0.27579
O         10.07097        23.39459         0.73282
H          9.56300        23.83045         1.44438
O         17.54687        39.61878         3.91906
H         16.98929        40.29674         4.41066
O         36.84227        33.69994         1.59005
H         37.53572        34.32734         1.88521
O         36.48725        35.46945        -1.65191
H         35.95092        34.72051        -2.00617
O         35.10749        33.22667        -1.58750
H         34.59335        32.42329        -1.84636
O         31.32127        24.50991         3.83810
H         30.62662        24.05943         4.37256
O         14.18333        39.12524         3.81742
H         14.60263        39.85036         4.38008
O         22.81408        38.21632         4.41086
H         23.65832        38.20000         4.91838
O         24.65749        54.37228        -1.11777
H         25.40787        54.94838        -0.85724
O         19.24551        39.14657         0.05937
H         19.29717        39.98069        -0.45745
O          9.66294        30.93789        -1.34979
H          9.63314        31.82594        -1.76351
O          9.53887        29.90384         2.14961
H          9.51167        29.02351         2.57904
O         33.72761        35.88334         3.03670
H         33.02219        36.28425         3.59378
O         27.83083        33.77759         4.04819
H         27.22019        33.88274         4.80754
O         25.07963        54.21222        -4.74839
H         25.38881        53.43616        -5.26917
O         27.04863        48.07666         0.08869
H         27.94478        47.75460         0.32529
O         17.69907        32.95616         3.36383
H         17.82027        33.79231         3.88430
O         19.49915        26.08923         2.65662
H         19.30751        26.80223         3.30468
O         14.52093        26.24202         2.32642
H         13.63365        25.84715         2.47736
O         28.54726        36.04233         4.24332
H         28.34250        36.93880         4.59800
H          4.97841        31.23988         0.85817
H          4.98098        33.68083         1.24373
H          7.46627        27.09136        -0.19587
H          6.18666        29.16705         0.29380
H          6.18854        35.77675         1.49984
H          7.40047        37.98594         1.66172
H         11.36626        24.63381        -2.08512
H          8.36447        25.19478        -0.37376
H          8.54186        40.19125         1.80896
H          9.79689        42.36674         1.89905
H         12.59399        18.80497        -1.97124
H         11.31328        21.08686        -1.88335
H         11.07689        44.48912         1.75200
H         12.36479        46.55971         1.20946
H         15.04065        14.62493        -2.28331
H         13.83532        16.76415        -2.40521
H         13.55870        48.55918         0.56599
H         14.81881        50.68430         0.13225
H         17.52472        10.12687        -1.83920
H         16.22875        12.62599        -1.62332
H         16.04027        52.74659        -0.45350
H         17.28579        54.84209        -0.91857
H         19.69323         6.03175        -1.99668
H         18.59767         8.18430        -2.26457
H         18.57824        56.93507        -1.22115
H         19.86533        59.04387        -1.46727
H         22.85983         2.57112        -0.96503
H         20.82035         3.83090        -1.54209
H         23.41044        62.23808        -2.51828
H         21.23265        61.15674        -2.12742
H         25.07054         3.64405        -0.83267
H         26.47451         5.79570        -0.94701
H         26.65132        58.70383        -3.00617
H         25.49595        60.93985        -2.76412
H         27.80553         7.85490        -0.99027
H         29.13555         9.87846        -0.94512
H         28.86762        54.37734        -2.95473
H         27.76728        56.49069        -2.92898
H         30.39204        11.94449        -0.44120
H         31.61207        14.00733         0.25222
H         31.42100        50.18858        -1.99528
H         30.08078        52.53697        -2.64983
H         32.88874        16.09275         0.46183
H         34.17153        18.27951         0.63087
H         33.84743        45.99704        -1.94726
H         32.60874        48.06232        -2.28073
H         35.39046        20.36989         0.78995
H         36.68121        22.56267         0.84294
H         36.44565        41.94767        -0.72363
H         35.12864        43.95428        -1.47935
H         37.76391        24.69095         0.33286
H         38.94221        26.85233         0.05855
H         38.97339        37.87742         0.26853
H         37.73285        39.96021        -0.09337
H         40.15109        28.96255        -0.19265
H         41.37255        31.09268        -0.40690
H         41.41945        33.54635        -0.44646
H         40.16325        35.69532         0.15376
