         324
 CSIRO Nanostructure Databank - Neutral Graphene Oxide Data Set
C          1.16142         3.51563        -1.15043
C         -0.03124         4.19959        -1.27613
C          1.11855         6.32985        -0.97032
C         -0.05681         5.60383        -1.16855
C          1.07512         7.77943        -0.64703
C         -0.06848         8.61645        -1.01071
C          1.17759        10.68209        -0.51469
C         -0.02755         9.96817        -0.86669
C          1.16906        12.11661        -0.31917
C         -0.03255        12.84897        -0.34054
C          1.14555        14.91240         0.17918
C         -0.03533        14.22109        -0.11520
C          1.07289        16.37418         0.44840
C         -0.00115        17.20644        -0.10427
C          1.20723        19.27460         0.46690
C          0.03734        18.56766         0.03888
C          1.21650        20.78984         0.33323
C         -0.01610        21.53373         0.80284
C          1.28674        23.60849         1.18292
C          0.04173        22.84964         1.12393
C          1.34294        25.00673         1.50639
C          0.16245        25.86344         1.51914
C          1.27975        27.99190         0.78620
C          0.13439        27.18951         1.18698
C          1.16714        29.03739        -0.18451
C          3.60229         3.52285        -0.83513
C          2.38439         4.22418        -0.97519
C          3.62311         6.37394        -0.87012
C          2.37084         5.65623        -0.91403
C          3.66200         7.81431        -0.73867
C          2.40239         8.51876        -0.44124
C          3.63785        10.67950        -0.33206
C          2.39326         9.98943        -0.46436
C          3.63269        12.08479        -0.07688
C          2.39381        12.80172        -0.04251
C          3.61506        14.85782         0.59844
C          2.37983        14.20525         0.25029
C          3.64297        16.32054         1.06928
C          2.34621        17.09737         0.83920
C          3.68337        19.21298         0.66521
C          2.40699        18.56373         0.65160
C          3.72353        20.65931         0.95068
C          2.43277        21.42061         0.97046
C          3.76229        23.51383         1.10896
C          2.49688        22.89502         1.02188
C          3.83079        24.88380         1.48549
C          2.61016        25.55245         1.78062
C          3.73805        28.22919         0.67986
C          2.55958        27.71186         1.27526
C          3.60411        29.21600        -0.35264
C          2.28488        29.64787        -0.71003
C          6.06020         3.51923        -0.64036
C          4.82880         4.21236        -0.78311
C          6.09782         6.31942        -1.14649
C          4.82368         5.64304        -0.90718
C          6.11405         7.88830        -1.12755
C          4.84851         8.55226        -0.77064
C          6.10403        10.66640        -0.31743
C          4.86797         9.96612        -0.44770
C          6.10210        12.05649         0.02982
C          4.86554        12.76233         0.15893
C          6.10126        14.82583         0.86355
C          4.81749        14.15246         0.54271
C          6.13989        16.35076         0.82711
C          4.84256        17.00807         0.39008
C          6.13523        19.17014         0.46711
C          4.89635        18.50482         0.57434
C          6.14703        20.64480         0.34944
C          4.96195        21.40906         0.73503
C          6.23663        23.54135         0.74243
C          4.99579        22.79914         0.86111
C          6.26047        24.97334         0.90839
C          5.09150        25.54396         1.47113
C          6.14863        27.96350         0.17373
C          5.02658        27.69507         0.95746
C          6.04227        29.13049        -0.68093
C          4.77796        29.71876        -0.93885
C          8.51737         3.46294        -0.33175
C          7.29950         4.19559        -0.64432
C          8.61613         6.28079        -1.02010
C          7.33843         5.57810        -0.92018
C          8.65840         7.80801        -1.02613
C          7.38812         8.59991        -0.90370
C          8.60189        10.72089        -0.46016
C          7.35036         9.93802        -0.53688
C          8.60307        12.08601         0.07010
C          7.35306        12.77908         0.26358
C          8.62095        14.85130         0.95749
C          7.36195        14.11260         0.65888
C          8.66378        16.39250         1.05890
C          7.39716        17.05413         0.56686
C          8.64706        19.15550         0.40235
C          7.38914        18.45403         0.41273
C          8.68549        20.59847         0.64232
C          7.45973        21.39470         0.37189
C          8.67517        23.56921         0.55011
C          7.46199        22.85573         0.60144
C          8.65722        24.98911         0.35878
C          7.43406        25.73467         0.53494
C          8.49444        27.76044        -0.41050
C          7.37176        27.15981         0.18103
C          8.47161        29.10103        -0.96499
C          7.22081        29.71326        -1.18515
C         10.95735         3.30748         0.24226
C          9.73046         4.06910        -0.23859
C         10.97026         6.22105         0.07209
C          9.85911         5.49184        -0.62685
C         10.94419         7.70015         0.23998
C          9.92964         8.47986        -0.55401
C         11.10542        10.62532         0.15521
C          9.93044         9.96694        -0.41285
C         11.06779        12.00415         0.27557
C          9.82958        12.71334         0.25642
C         11.13549        14.85974         0.34069
C          9.89806        14.12034         0.69661
C         11.01771        16.27662        -0.03666
C          9.86796        17.05078         0.40439
C         11.14190        19.18567         0.07708
C          9.88336        18.45180         0.31046
C         11.20735        20.61912         0.19006
C         10.01016        21.34155         0.65091
C         11.22806        23.56110         0.21209
C          9.96624        22.84536         0.61365
C         11.09212        24.94940        -0.26763
C          9.85548        25.61556        -0.13554
C         10.94649        27.72109        -1.10203
C          9.71370        26.98450        -0.65854
C         10.94666        29.20467        -1.10256
C          9.66655        29.80357        -1.26244
C         13.46376         3.38796         0.22659
C         12.27100         4.07339         0.16536
C         13.46138         6.26473         0.22029
C         12.25132         5.50607         0.19993
C         13.47436         7.62786         0.46531
C         12.20080         8.39066         0.82493
C         13.49358        10.52040         0.57053
C         12.29979         9.86105         0.47201
C         13.51912        11.96796         0.26782
C         12.30966        12.74531         0.71542
C         13.58695        14.86739         0.02975
C         12.32658        14.18908         0.26314
C         13.60002        16.29118        -0.26290
C         12.31202        17.02074        -0.41652
C         13.52143        19.19729        -0.66235
C         12.30191        18.48278        -0.26645
C         13.60167        20.65279        -0.50505
C         12.39571        21.34614        -0.14850
C         13.59207        23.47081        -0.53837
C         12.42047        22.77338        -0.18043
C         13.53989        24.91039        -0.68249
C         12.28591        25.57793        -0.72238
C         13.49652        27.80726        -0.93794
C         12.25118        27.00283        -1.08296
C         13.36439        29.22825        -0.43674
C         12.12530        29.91414        -0.94895
C         16.02288         3.40285         0.07237
C         14.75872         4.12193         0.48701
C         16.01893         6.26320         0.16138
C         14.73309         5.51933        -0.13283
C         16.03025         7.64651         0.41266
C         14.75685         8.31545         0.72204
C         16.05056        10.54873         0.59782
C         14.77466         9.83704         0.81135
C         16.07074        11.96140         0.42950
C         14.81537        12.68888         0.16671
C         16.04862        14.82706         0.24091
C         14.79617        14.16408         0.19425
C         16.06744        16.22580        -0.24279
C         14.79885        16.96421        -0.40196
C         16.09207        19.18068        -0.75595
C         14.84189        18.39457        -0.79612
C         16.06131        20.56350        -0.86574
C         14.82264        21.32380        -0.73263
C         16.02819        23.52655        -0.89929
C         14.83535        22.77106        -0.73229
C         15.99492        24.93924        -0.89342
C         14.76810        25.64381        -0.79835
C         15.91857        27.85240        -0.69907
C         14.76763        27.08773        -0.72881
C         15.86932        29.30562        -0.55143
C         14.65920        29.97916        -0.54482
C         18.47326         3.42566        -0.24225
C         17.20363         4.09694        -0.05246
C         18.46629         6.25175         0.17494
C         17.22633         5.55188         0.08488
C         18.48492         7.66879         0.36384
C         17.24938         8.37038         0.49875
C         18.51073        10.50291         0.68203
C         17.26008         9.80995         0.61978
C         18.48516        11.96107         0.93637
C         17.25156        12.70099         0.60327
C         18.49738        14.89403         0.73112
C         17.24744        14.12432         0.46999
C         18.51649        16.38557         0.47067
C         17.35673        16.97473        -0.28191
C         18.67962        19.15773        -0.69161
C         17.37925        18.42855        -0.69599
C         18.66756        20.63645        -0.97338
C         17.32471        21.31666        -1.13723
C         18.59504        23.54037        -0.80614
C         17.32391        22.83006        -1.13382
C         18.59337        25.01190        -0.92854
C         17.24252        25.71221        -1.11019
C         18.47935        27.96688        -0.59812
C         17.21230        27.20304        -0.95334
C         18.31592        29.35788        -0.10832
C         17.09551        30.00324        -0.25909
C         19.65145         4.10995        -0.18976
C         20.90523         6.24072         0.12024
C         19.69143         5.53375         0.04040
C         20.92402         7.62049         0.31090
C         19.73247         8.37068         0.42210
C         20.95684        10.57612         0.52531
C         19.73197         9.81368         0.59199
C         21.00464        11.93446         0.62239
C         19.82554        12.73479         0.96188
C         20.98616        14.96557         0.78793
C         19.80180        14.20301         0.78832
C         21.02670        16.34872         0.71926
C         19.81596        17.15399         0.52737
C         21.13981        19.35096        -0.06962
C         19.86723        18.58515         0.04231
C         21.13549        20.67982        -0.26938
C         19.91867        21.42159        -0.70719
C         20.93344        23.66359        -0.14498
C         19.79044        22.89305        -0.52808
C         20.89357        25.03896        -0.05521
C         19.74896        25.78935        -0.43008
C         20.74598        27.93107         0.34915
C         19.69639        27.20369        -0.24191
C         20.63484        29.30298         0.64426
C         19.45527        30.00538         0.44453
O          6.09128         7.13933        -2.37353
O          9.46183        10.60839        -1.63696
O          2.67775        26.82724         2.36547
O          9.38547        20.88195         1.90157
O         19.61681        18.30840         1.46388
O         11.40807        16.51428        -1.44444
O         14.78978         9.00787         2.01897
O         18.20865        15.89554         1.80712
O          6.13050        15.63233         2.09686
O         10.35167         6.84719         1.29093
O         17.28642        22.06528        -2.38858
O         10.86792        23.40890         1.63490
O          6.82467        21.07686        -0.90892
O         16.94985        16.21370        -1.46323
O         14.02300        18.71235        -1.95776
O          9.56672         5.73365        -2.01899
O          2.95548        20.89024         2.21909
O         13.01472        27.45778        -2.26813
O         19.12577        12.33432         2.19558
O         14.05934        12.23193        -1.05344
O         10.07504        27.11528        -2.10301
O          9.40045        14.26982         2.07738
O          1.62466         8.00236         0.69608
O          5.17211        26.81073         2.04677
O         18.24220        18.47722        -1.90133
O          1.36008        16.71657         1.85918
O          9.72027         8.18087        -1.96272
O         19.56250        20.98191        -2.07024
O         18.03540        25.34491        -2.26525
O         18.01398        27.85650        -1.98422
O         14.83866         4.30137         1.93517
H         14.88782         3.41500         2.34963
O          4.68922        16.76223        -1.03713
H          5.33152        17.32485        -1.51939
O          8.73456        16.71659         2.47816
H          7.94305        16.30640         2.89815
O          3.84572        16.35273         2.49138
H          2.96078        16.25151         2.90944
O         13.13674        29.05024         1.02452
H         13.11396        29.94315         1.43018
O         12.34785        12.74659         2.16835
H         11.51691        13.15433         2.49726
O         12.08697         8.37373         2.26535
H         11.64373         7.52750         2.50794
O         14.69397         5.31759        -1.57443
H         14.67829         6.19468        -2.01060
O         11.05496         2.05942        -0.44962
H         11.16775         2.24728        -1.40404
O          1.36174        21.08109        -1.09756
H          0.57939        20.71459        -1.56080
H          1.18352         2.41756        -1.19656
H         -0.97204         3.65169        -1.42352
H         -1.02458         6.12240        -1.20808
H         -0.96538         8.14369        -1.43554
H         -0.92836        10.54335        -1.11981
H         -0.99005        12.34817        -0.53037
H         -0.99158        14.76092        -0.14076
H         -0.85412        16.73658        -0.61291
H         -0.82464        19.15977        -0.30648
H         -0.98880        21.01828         0.80493
H         -0.88950        23.36715         1.39808
H         -0.80956        25.36839         1.66823
H         -0.85516        27.66310         1.08162
H          0.16657        29.33122        -0.53347
H          3.59595         2.42353        -0.80713
H          2.17443        30.43779        -1.46622
H          6.04421         2.42835        -0.50443
H          4.72047        30.56342        -1.64010
H          8.42287         2.39476        -0.08539
H          7.16734        30.66334        -1.73521
H         10.79526         3.05051         1.32714
H          9.59661        30.87393        -1.50618
H         13.44934         2.28727         0.26665
H         12.09678        31.01503        -0.95522
H         16.02883         2.30164         0.03235
H         14.64831        31.07070        -0.39833
H         18.47106         2.33665        -0.39755
H         17.02664        31.07109         0.00001
H         20.60552         3.57653        -0.31458
H         21.85454         5.69380         0.02552
H         21.89863         8.12322         0.37069
H         21.89098        10.04672         0.29227
H         21.94800        12.45302         0.39767
H         21.94381        14.43604         0.89924
H         21.99331        16.86062         0.81552
H         22.07878        18.84153         0.19053
H         22.09214        21.22227        -0.25292
H         21.86901        23.14775         0.10591
H         21.79918        25.56094         0.28052
H         21.69065        27.43068         0.60020
H         21.50022        29.81657         1.08577
H         19.38300        31.06259         0.73737
