         349
 CSIRO Nanostructure Databank - Neutral Graphene Oxide Data Set
C          1.26146         3.38081         0.31736
C          0.05593         4.11870         0.57863
C          1.35993         6.23391         0.45070
C          0.06199         5.47573         0.63678
C          1.22060         7.72063         0.13527
C          0.08078         8.44420         0.51806
C          1.18195        10.57407         0.06456
C          0.05096         9.83416         0.46016
C          1.17677        12.04341         0.08163
C          0.01073        12.76792         0.41000
C          1.15549        14.91277         0.18960
C         -0.00445        14.15547         0.47207
C          1.15970        16.36852         0.17306
C         -0.04509        17.13189         0.44779
C          1.00636        19.15919        -0.53163
C         -0.11261        18.46188         0.20745
C          1.02232        20.66829        -0.41957
C         -0.12055        21.41069        -0.29961
C          1.04668        23.58082        -0.25249
C         -0.11308        22.83872        -0.19830
C          1.08783        25.02623        -0.05276
C         -0.08294        25.78476        -0.01249
C          1.14977        27.87451         0.15544
C         -0.05544        27.18873         0.10028
C          1.20015        29.32372         0.26705
C          3.65170         3.38663        -0.21250
C          2.39542         4.03401        -0.13232
C          3.57259         6.19749        -0.79337
C          2.23494         5.48054        -0.57552
C          3.57953         7.69965        -0.74001
C          2.34340         8.43904        -0.33696
C          3.56489        10.60296        -0.69869
C          2.33438         9.85379        -0.34175
C          3.61144        12.07477        -0.47053
C          2.35868        12.78029        -0.20831
C          3.53389        14.95991        -0.52339
C          2.32784        14.19615        -0.17094
C          3.60960        16.39379        -0.19918
C          2.34918        17.09208        -0.04257
C          3.53365        19.24465        -0.17503
C          2.33617        18.52397        -0.18344
C          3.57681        20.65362        -0.37277
C          2.30697        21.35549        -0.64903
C          3.59356        23.56722        -0.32478
C          2.30918        22.88989        -0.57465
C          3.57252        24.96861        -0.02075
C          2.36423        25.68994         0.07898
C          3.59434        27.84474         0.23187
C          2.38952        27.13627         0.17959
C          3.62708        29.26977        -0.25577
C          2.35966        29.99900         0.12221
C          6.15188         3.33092        -0.25365
C          4.84985         4.08915        -0.38918
C          6.08383         6.23007        -0.49940
C          4.85206         5.48607        -0.57219
C          6.06606         7.69476        -0.46268
C          4.87840         8.38176        -0.55810
C          6.12720        10.56168        -0.46823
C          4.87579         9.84282        -0.72720
C          6.13959        12.03525        -0.78407
C          4.81175        12.73265        -0.54329
C          6.07899        14.95643        -0.37481
C          4.84622        14.20652        -0.63998
C          6.08478        16.33703        -0.22161
C          4.82054        17.05709        -0.16125
C          6.05688        19.25384        -0.19562
C          4.80240        18.51953         0.21822
C          6.04171        20.73401        -0.14853
C          4.79350        21.40050        -0.32882
C          6.07809        23.59147        -0.60309
C          4.78462        22.84518        -0.37031
C          6.12061        24.97436         0.00567
C          4.83492        25.61387         0.35251
C          6.13219        27.85720         0.66378
C          4.81860        27.13788         0.55536
C          6.13941        29.41642         0.39311
C          4.88827        30.03931         0.03121
C          8.65261         3.41114        -0.49323
C          7.34971         4.08838        -0.84771
C          8.55713         6.31146        -0.44713
C          7.30068         5.55825        -0.50412
C          8.50280         7.73770        -0.08891
C          7.31796         8.41929        -0.24037
C          8.55338        10.62878        -0.08237
C          7.29646         9.88748        -0.20361
C          8.56181        12.00968        -0.03577
C          7.24328        12.74800         0.01460
C          8.63110        14.94083        -0.26868
C          7.33948        14.19644        -0.42218
C          8.57924        16.38785         0.00687
C          7.34718        17.02894         0.00829
C          8.52415        19.25276         0.49093
C          7.33747        18.50931        -0.02642
C          8.52447        20.73202         0.28536
C          7.27622        21.43166        -0.13521
C          8.57071        23.52550        -0.23589
C          7.32253        22.82082        -0.25385
C          8.56884        24.92831        -0.21471
C          7.32821        25.63514         0.05542
C          8.67969        27.84152         0.28772
C          7.40338        27.06731         0.48560
C          8.65183        29.32680         0.12708
C          7.42753        30.02101         0.09706
C         11.08913         3.40801        -0.14575
C          9.83417         4.08199        -0.31708
C         11.07910         6.27213         0.09421
C          9.86487         5.56992        -0.38018
C         11.00957         7.64044         0.77464
C          9.65822         8.46048         0.58181
C         10.99247        10.60979         0.56185
C          9.84828         9.82326        -0.10721
C         11.03691        12.00298        -0.02452
C          9.78863        12.78016         0.04196
C         11.08547        14.90714         0.21688
C          9.85421        14.16984         0.03025
C         11.01922        16.35652         0.39954
C          9.82982        17.05978         0.30034
C         11.06764        19.28775         0.49080
C          9.80975        18.49087         0.82275
C         11.06791        20.64350         0.20412
C          9.82299        21.41538         0.09441
C         11.09394        23.45454        -0.45046
C          9.81449        22.76003        -0.20036
C         11.10478        24.94190        -0.65226
C          9.77481        25.70835        -0.68643
C         11.07482        27.78700        -0.30074
C          9.88313        27.12513        -0.19080
C         11.07750        29.26332        -0.60481
C          9.85032        29.98628        -0.13550
C         13.52755         3.42397         0.11020
C         12.27851         4.11399         0.00913
C         13.50601         6.25001         0.66308
C         12.25016         5.56589         0.16627
C         13.50217         7.73578         0.37475
C         12.27861         8.44630         0.47355
C         13.52268        10.56231         0.32500
C         12.28917         9.84402         0.41514
C         13.52996        11.98551         0.30997
C         12.33190        12.76219         0.02508
C         13.56458        14.87656         0.47089
C         12.30227        14.21256         0.28026
C         13.55929        16.31871         0.82416
C         12.25532        17.06015         0.87289
C         13.62862        19.17562         0.45512
C         12.32515        18.59923         0.99368
C         13.59298        20.57794        -0.02881
C         12.33054        21.36632         0.03978
C         13.57958        23.52276        -0.19601
C         12.35832        22.74208        -0.15071
C         13.58742        24.92299        -0.16538
C         12.35742        25.67646        -0.32400
C         13.48870        27.81277         0.33231
C         12.32119        27.05345        -0.23702
C         13.54176        29.27447        -0.08476
C         12.37828        29.95591        -0.33820
C         15.99755         3.39089         0.12947
C         14.74944         4.09475         0.19004
C         15.96090         6.21390         0.06640
C         14.77310         5.53899         0.24367
C         15.98045         7.69658        -0.20627
C         14.72083         8.43122         0.20185
C         16.04158        10.56228        -0.03893
C         14.74617         9.82933         0.22304
C         16.04174        11.95636         0.53637
C         14.75769        12.72243         0.55527
C         15.98300        14.93678        -0.04292
C         14.76163        14.18890         0.45190
C         16.15500        16.30551         0.60686
C         14.87289        17.06309         0.88185
C         16.12257        19.24606         0.54927
C         14.82219        18.52433         0.60460
C         16.16870        20.66038         0.16149
C         14.89361        21.31107        -0.22580
C         16.14980        23.55305        -0.07395
C         14.86709        22.80662        -0.32921
C         16.06009        24.97083         0.29402
C         14.83311        25.67432         0.07469
C         15.98497        27.86734         0.51389
C         14.78759        27.07072         0.20887
C         16.00892        29.30774         0.16291
C         14.79292        29.96191        -0.08243
C         18.47610         3.35938         0.04337
C         17.19920         4.06385         0.02324
C         18.43564         6.19178        -0.16641
C         17.21387         5.50818        -0.05082
C         18.52221         7.61041         0.00299
C         17.25951         8.33453         0.30456
C         18.57702        10.52253         0.28866
C         17.29509         9.81407         0.43958
C         18.63559        11.97091         0.39613
C         17.32785        12.73730         0.47106
C         18.60046        14.84700        -0.18187
C         17.29408        14.13032        -0.08480
C         18.58113        16.33601        -0.08065
C         17.42038        17.01146         0.26758
C         18.66256        19.20271         0.06004
C         17.45838        18.46778         0.46794
C         18.65030        20.61949         0.10777
C         17.38004        21.33633         0.14954
C         18.59433        23.46929         0.21068
C         17.41433        22.79389         0.11931
C         18.62734        24.92975         0.46334
C         17.27684        25.66255         0.68332
C         18.54564        27.85980         0.31720
C         17.30687        27.15692         0.67938
C         18.49632        29.27855         0.17164
C         17.24485        29.97074         0.13978
C         19.63782         3.99334        -0.20909
C         20.93142         6.16812        -0.36667
C         19.64946         5.43403        -0.64460
C         20.94738         7.51801        -0.23162
C         19.73180         8.29410        -0.10285
C         21.01512        10.52647         0.15701
C         19.76383         9.80867        -0.29327
C         21.07222        11.88703         0.21652
C         19.89056        12.70707         0.11870
C         21.06439        14.88898        -0.08339
C         19.88716        14.11092         0.03010
C         21.02929        16.27347        -0.24066
C         19.83741        17.02926        -0.21819
C         21.03871        19.22222        -0.43940
C         19.85421        18.48450        -0.22297
C         21.04678        20.60852        -0.31257
C         19.87286        21.32368        -0.04575
C         20.86912        23.60534        -0.65674
C         19.94384        22.80462         0.24341
C         20.78012        24.96527        -0.71234
C         19.75866        25.70257        -0.01648
C         20.91457        27.89423        -0.26860
C         19.74309        27.14708         0.02169
C         20.89079        29.28807        -0.28745
C         19.69799        29.98177        -0.09463
O         16.58100        27.66323         1.85881
O         17.13325         8.95154         1.62472
O          3.53137         6.98721        -2.03849
O         15.41023        12.14133         1.80996
O         12.79638        16.44703         2.09009
O          2.31240        22.18313        -1.85898
O         11.19213        24.05824        -1.81738
O          8.11841        14.52355        -1.60399
O          4.74811        26.21234         1.69234
O          8.30774        27.31410         1.61408
O         11.06781         7.25802         2.14537
O         18.07198        12.57615         1.68118
O          8.24293        20.14471         1.62631
O         17.92941        14.27126        -1.39466
O          4.18304        10.24691        -1.98625
O          6.82712        18.86137        -1.38354
O         14.23081        20.66882        -1.36951
O         15.65051        23.31107        -1.46248
O         11.73894        12.23903        -1.26965
O         18.08093        25.17327         1.80787
O          4.10914        14.66502        -1.83618
O         15.70897        16.54068         1.96911
O          6.15736        28.75056         1.74012
O         16.92031        18.95016         1.74218
O          9.38810         6.06944        -1.68762
O          6.82144        12.80278         1.40603
H          7.07526        11.96252         1.84308
O          0.77815        18.88788        -1.95736
H          0.88289        17.92200        -2.09319
O          9.47683        25.93446        -2.11454
H          9.83507        25.14518        -2.59098
O         19.69685         9.97173        -1.77173
H         20.56499         9.69547        -2.13552
O         16.19182        10.70678        -1.47292
H         16.21084         9.79688        -1.86253
O          6.12195        23.81712        -2.06627
H          5.96479        22.95260        -2.50337
O          3.60504        29.16264        -1.74091
H          3.26868        30.01362        -2.09472
O         13.23609        27.84068         1.78686
H         14.07756        28.08903         2.22923
O          4.85590        18.56748         1.68570
H          4.03938        18.14763         2.02999
O          2.08756         6.18327         1.71476
H          1.49825         6.51993         2.42157
O          6.43982        12.15639        -2.19096
H          5.72661        11.68789        -2.68063
O         12.38471        18.94131         2.40557
H         12.63341        18.11404         2.88701
O         10.95635        29.29868        -2.09147
H         10.30547        28.61109        -2.35484
O         16.06127         7.85445        -1.67157
H         15.33559         7.33227        -2.07609
O         19.53589         5.40200        -2.12343
H         19.42092         6.32994        -2.42106
O         10.20826         9.56751        -1.47561
H         10.36106        10.42486        -1.92877
O         10.71542        10.83502         1.95875
H         10.22734        10.03812         2.30077
O         15.63241        15.26810        -1.41976
H         16.40652        15.02169        -1.98586
O          9.81866        18.28983         2.26061
H          9.51517        19.13505         2.66706
O         13.48849         6.17136         2.11752
H         12.59474         6.55602         2.38871
O          9.15702         8.72845         1.91701
H          9.67802         8.07424         2.48819
O          1.52185         5.44277        -1.82477
H          1.97268         6.07657        -2.43368
O          7.21306         4.01690        -2.29812
H          7.92555         4.58038        -2.67664
O          6.36406         3.08123         1.13958
H          7.26324         2.70748         1.25226
O         20.47958        22.91341         1.59967
H         20.25320        23.80439         1.94301
H          1.29435         2.30486         0.54468
H         -0.86736         3.56219         0.79753
H         -0.85914         6.00693         0.91642
H         -0.81196         7.92126         0.88627
H         -0.86828        10.34575         0.77312
H         -0.92449        12.23500         0.62652
H         -0.94418        14.65838         0.73613
H         -0.91327        16.61850         0.88549
H         -1.04295        19.00549         0.42546
H         -1.09483        20.90900        -0.21443
H         -1.07603        23.33176        -0.00612
H         -1.05999        25.29013        -0.09632
H         -1.00266        27.74655         0.12043
H          0.26019        29.86056         0.46679
H          3.70052         2.30769         0.00198
H          2.38552        31.09688         0.18839
H          6.05784         2.34771        -0.80001
H          4.99439        30.94885        -0.58542
H          8.66999         2.31036        -0.54577
H          7.42966        31.05784        -0.27136
H         11.10485         2.30799        -0.16284
H          9.83557        31.08152        -0.24762
H         13.52362         2.32532         0.04074
H         12.42194        31.03602        -0.55050
H         15.98729         2.29087         0.16476
H         14.80253        31.03311        -0.33631
H         18.46711         2.28803         0.29599
H         17.25845        31.05613        -0.04158
H         20.59209         3.44567        -0.18945
H         21.87688         5.60826        -0.42511
H         21.91573         8.03624        -0.15912
H         21.93438         9.95064         0.34069
H         22.04249        12.37241         0.40185
H         22.04373        14.39322        -0.03482
H         21.99140        16.79811        -0.31418
H         21.98109        18.70622        -0.66542
H         21.99914        21.14693        -0.41482
H         21.68314        23.09510        -1.19191
H         21.52307        25.52360        -1.30141
H         21.86159        27.37048        -0.45516
H         21.81728        29.84253        -0.49170
H         19.67343        31.07726        -0.18041
