         252
 CSIRO Nanostructure Databank - Neutral Graphene Oxide Data Set
C         30.38423        31.96074        -1.34186
C         30.31737        33.14673        -0.94972
C         30.60217        36.33969        -1.25383
C         30.62165        37.62275        -1.31473
C         30.73353        40.75104        -0.70014
C         30.29196        41.88056        -0.25310
C         33.04747        29.20806        -1.85345
C         32.00312        29.91779        -1.84354
C         32.65749        32.15525        -1.69765
C         31.52019        31.24522        -1.83177
C         32.71400        33.29614        -0.93590
C         31.45464        33.99979        -0.40207
C         32.89905        36.08558        -0.89423
C         31.55575        35.42010        -0.92197
C         32.95998        37.62857        -0.89634
C         31.69931        38.42757        -0.97681
C         33.09146        40.49442        -0.65283
C         31.76534        39.84628        -0.79310
C         33.18932        41.95439        -0.55092
C         31.09764        43.00173        -0.43953
C         32.64040        44.45417         0.76307
C         31.51582        44.04567         0.42789
C         35.85026        27.35756        -1.00322
C         35.58186        28.75810        -0.93516
C         34.24222        29.47813        -0.94145
C         35.44465        31.63314        -0.43744
C         34.53727        30.94646        -1.18605
C         35.23969        33.06197        -0.06554
C         33.98407        33.86215        -0.36529
C         35.31271        36.00094        -0.16120
C         34.08067        35.34507        -0.39090
C         35.38230        37.47362        -0.11800
C         34.07956        38.25375        -0.07808
C         35.51439        40.45650        -0.12201
C         34.20222        39.74168        -0.33909
C         35.37274        41.83136         0.53819
C         34.14282        42.54950         0.28243
C         35.17351        44.52850         1.56955
C         33.94886        43.84755         1.01321
C         35.34332        45.97364         1.76814
C         38.12323        26.64120        -0.61658
C         36.69965        26.49028        -0.69452
C         38.05274        28.93742        -0.48377
C         36.70803        29.49477        -0.52547
C         37.76134        31.56228         0.37043
C         36.64233        30.89363        -0.07281
C         37.76597        33.03704         0.53538
C         36.48035        33.81243         0.31712
C         37.78987        35.93465         0.21815
C         36.49496        35.25500         0.07289
C         37.69432        37.31936         0.74549
C         36.52641        38.11497         0.28963
C         37.79624        40.24145         1.05680
C         36.51562        39.57060         0.59405
C         37.83512        41.77262         1.27496
C         36.50833        42.47764         1.01316
C         37.72120        44.60589         1.44844
C         36.52067        43.89533         1.34145
C         37.78695        46.08336         1.78175
C         36.40942        46.58534         1.83501
C         40.53013        24.47929         1.19215
C         39.39348        24.88936         0.70224
C         40.35884        27.16335         0.30539
C         39.19836        26.17976         0.12580
C         40.31038        28.68625         0.49699
C         39.05074        29.44025         0.29777
C         40.25068        31.56760         0.03146
C         39.05188        30.87740         0.74252
C         40.28085        33.04889         0.36516
C         39.08106        33.71896         0.42830
C         40.30825        35.89639         0.83258
C         39.07456        35.19313         0.39729
C         40.28481        37.23408         1.13413
C         38.99167        37.97089         1.25270
C         40.20160        39.84851         0.37124
C         39.01882        39.40728         1.01234
C         40.17465        42.07755         0.16596
C         38.96589        42.62948         0.72405
C         40.24361        44.70736         0.84100
C         38.96559        43.95984         1.08294
C         40.25036        46.19422         0.89410
C         39.01686        46.88098         1.48440
C         40.12545        48.95384         0.77609
C         39.14360        48.31467         1.17331
C         42.84173        24.53501         1.30063
C         41.69205        23.85004         1.43068
C         42.84639        27.25028         0.49910
C         41.69920        26.64808        -0.01517
C         42.83592        28.73999         0.86831
C         41.57237        29.46908         0.44013
C         42.78310        31.62030         0.27347
C         41.56179        30.84265         0.28483
C         42.79253        33.02619         0.36719
C         41.54398        33.76605         0.45948
C         42.78852        35.89789         0.74848
C         41.54992        35.15211         0.71242
C         42.80140        37.29680         0.86442
C         41.57079        38.02968         1.35494
C         42.69143        40.20492         0.50002
C         41.46796        39.37088         0.66020
C         42.65043        41.70712         0.31325
C         41.42512        42.57155         0.35910
C         42.81225        44.65263         0.60018
C         41.54219        43.91127         1.06008
C         42.79402        46.17067         0.49806
C         41.55584        47.00617         0.94377
C         42.68725        48.96339         0.00234
C         41.30905        48.36016         0.06576
C         43.96571        25.11385         1.00369
C         45.29408        27.24653         0.77879
C         44.06073        26.51286         0.70729
C         45.34851        28.67891         0.63025
C         44.05291        29.34364         0.16182
C         45.33460        31.60503         0.41078
C         44.06413        30.87178         0.17129
C         45.32937        33.08502         0.55738
C         44.03823        33.78386         0.46578
C         45.30102        35.91503         0.92855
C         44.01782        35.16724         0.61108
C         45.25806        37.39003         0.55938
C         44.00889        38.06094         0.57524
C         45.16289        40.14591        -0.04019
C         43.97639        39.45987         0.30393
C         45.13061        41.60805        -0.37119
C         43.86284        42.41729        -0.21328
C         45.14182        44.59317        -0.36253
C         43.88820        43.88123        -0.05698
C         45.00279        46.02855        -0.87672
C         43.83299        46.82921        -0.42052
C         43.65412        48.28000        -0.36241
C         47.69318        27.34305         1.01362
C         46.58833        26.73746         0.99702
C         47.82489        28.74391         0.88476
C         46.55986        29.39196         0.71010
C         47.79460        31.61904         0.32476
C         46.56648        30.89839         0.93214
C         47.86369        33.07254         0.82919
C         46.52220        33.75565         0.56654
C         47.79933        35.92715         0.46569
C         46.48189        35.22355         0.21691
C         47.77161        37.42699         0.46742
C         46.44811        38.10002         0.29794
C         47.66745        40.05944        -0.70832
C         46.40423        39.46343        -0.07585
C         47.50888        41.53243        -1.05209
C         46.48931        42.29966        -0.23939
C         47.53655        44.40430        -1.37658
C         46.41993        43.80658        -0.55924
C         47.32083        45.81427        -1.40620
C         46.33294        46.54859        -1.25800
C         50.35935        28.93893         0.71561
C         49.05943        29.48297         0.78311
C         50.29494        31.57919         0.15949
C         49.10103        30.87874         0.52746
C         50.25353        33.00850        -0.03620
C         49.06889        33.78858         0.21557
C         50.05060        35.95734        -0.69398
C         49.03016        35.17213         0.09369
C         50.28454        37.39988        -0.17685
C         49.06554        38.20832         0.28627
C         50.04271        40.49949         0.35425
C         48.95571        39.69476         0.07997
C         50.27107        41.95237         0.10612
C         48.35706        42.15959        -1.93414
C         49.86871        44.08354        -2.05012
C         48.49120        43.62965        -1.97888
C         51.44742        29.47438         0.36580
C         52.58036        31.61625        -0.57536
C         51.53937        30.81952        -0.02250
C         52.55442        32.83775        -0.80262
C         51.48797        33.76124        -0.42684
C         52.29130        35.94897        -1.74850
C         51.39280        35.20756        -0.79707
C         52.24861        37.18077        -1.53038
C         51.51117        38.09328        -0.73180
C         52.69132        40.33950        -0.80392
C         51.90660        39.29420        -0.21288
C         52.32531        41.50310        -1.02091
C         51.32118        42.46454        -0.70725
C         50.86034        43.50353        -1.57519
O         42.88999        41.15555         1.66321
O         40.33522        27.77005         1.65088
O         34.31584        43.76178         2.42420
O         36.75135        39.78166         2.00737
O         44.34893        41.94395        -1.55266
O         38.71522        46.45514         2.82683
O         51.90824        34.85195         0.47807
O         38.68068        35.74568        -0.95563
O         33.29321        36.89209        -2.08872
O         40.05110        40.88948        -0.55092
O         47.83536        36.65099         1.73800
O         37.99642        37.43249         2.16333
O         46.19407        44.54483         0.69704
O         34.21288        33.25068         0.97949
O         40.11731        45.50989        -0.38380
O         51.18245        39.83075         0.88596
O         43.88836        46.24725        -1.75638
O         36.96884        33.49305         1.68944
O         33.86527        31.64632        -2.18206
O         50.06154        37.67316         1.20965
O         32.26144        42.71361        -1.28083
O         43.39392        45.54422         1.65837
O         38.42560        27.84748        -1.29890
O         44.93099        31.29588        -0.97057
O         31.45997        34.05086         1.01052
H         31.82374        33.21458         1.36963
O         36.12126        40.69756        -1.43062
H         35.45713        41.13183        -2.00704
O         46.51892        31.06315         2.36097
H         47.42143        30.97216         2.73243
O         47.60505        31.72636        -1.10370
H         47.33721        30.85187        -1.45600
O         33.74931        29.39270         0.41369
H         33.52579        28.45685         0.60156
O         38.05501        41.89495         2.71139
H         37.41352        41.29984         3.16083
O         39.28092        31.01782         2.15477
H         38.45565        30.80108         2.63587
O         49.37383        42.83320         0.57028
H         48.57565        42.40943         0.99585
O         40.92110        47.99873        -1.22428
H         40.82931        48.79528        -1.78474
O         46.86713        42.16415         1.16513
H         46.52718        42.97985         1.61657
O         49.49172        36.14058        -2.01743
H         49.11060        35.29368        -2.33048
O         39.96447        31.46686        -1.38829
H         40.67847        31.92117        -1.88271
O         47.84177        39.31025        -1.96208
H         47.00381        39.36680        -2.47002
O         42.98124        28.90379         2.28557
H         42.16767        28.54898         2.70854
O         33.61381        38.12032         1.30241
H         34.31931        38.43859         1.90646
O         46.27062        35.31397        -1.22013
H         45.59367        34.65137        -1.47565
O         48.09565        33.06193         2.25479
H         48.13137        33.99049         2.56921
O         41.62752        43.68493         2.47775
H         42.18956        42.89343         2.63629
O         49.21870        41.45907        -2.69666
H         49.00179        40.49437        -2.62114
O         43.89381        28.95144        -1.22687
H         44.44391        29.57013        -1.76088
O         41.75040        25.62456        -0.87662
H         42.67592        25.32638        -1.00389
O         41.78376        47.44391         2.27258
H         42.36223        46.78514         2.72162
O         45.43714        35.80469         2.36378
H         46.26856        36.27939         2.61268
O         41.73253        38.25579         2.78422
H         42.03778        37.42200         3.19928
