         480
 CSIRO Nanostructure Databank - Neutral Graphene Oxide Data Set
C         37.57698        49.81641         0.90561
C         36.39192        50.47484         1.01025
C         37.41541        52.65099         0.60372
C         36.30629        51.90083         0.83793
C         40.15039        48.50007         0.16023
C         40.09347        49.89710         0.34389
C         38.84811        50.54808         0.82963
C         39.93216        52.81190         0.09032
C         38.76037        52.07241         0.72089
C         40.00474        54.24905         0.52622
C         42.57543        48.50062        -0.22727
C         41.33511        47.82588        -0.11893
C         42.56072        50.02274        -0.28474
C         41.26556        50.68219         0.16430
C         42.48045        52.84313         0.26681
C         41.25204        52.08183         0.24580
C         42.45676        54.26279         0.40613
C         41.17419        54.91481         0.60660
C         45.04715        45.82397        -1.10389
C         43.90489        46.40567        -0.64011
C         45.05140        48.59530        -0.47297
C         43.78270        47.82791        -0.45638
C         45.06749        50.01058        -0.03825
C         43.76280        50.66691         0.43236
C         44.92873        52.90724         0.24014
C         43.74019        52.17570         0.25385
C         44.91565        54.32312         0.34018
C         43.67408        54.99961         0.46930
C         44.85960        57.12475         0.83759
C         43.69653        56.42510         0.71044
C         47.59523        44.59163        -2.06603
C         47.51274        45.94072        -1.82307
C         46.21158        46.60789        -1.56808
C         47.50456        48.82117        -1.09943
C         46.21645        48.08484        -1.26857
C         47.48298        50.17271        -0.73036
C         46.14739        50.89317        -0.63540
C         47.40596        53.04124        -0.27375
C         46.25241        52.16971         0.21929
C         47.37679        54.37820         0.40565
C         46.17447        55.04824         0.48851
C         47.33463        57.22534         0.63569
C         46.14909        56.49546         0.70846
C         47.39681        58.65908         0.61066
C         50.04025        44.51484        -1.86657
C         48.83590        43.88750        -2.09645
C         50.07737        45.98720        -1.85222
C         48.73872        46.75834        -1.84945
C         49.95470        48.82209        -1.08976
C         48.74386        48.15201        -1.32152
C         49.94205        50.18590        -0.66956
C         48.70056        50.88351        -0.53457
C         49.90840        52.96238         0.00878
C         48.71300        52.28466        -0.20641
C         49.92044        54.36889         0.40954
C         48.64148        55.06272         0.84566
C         49.86095        57.25542         0.77549
C         48.63351        56.50380         0.34049
C         49.86652        58.64781         0.71918
C         48.58733        59.33026         0.56953
C         52.46087        41.64336        -1.41505
C         51.28837        42.35782        -1.59501
C         52.48845        44.45693        -1.37683
C         51.28175        43.77752        -1.61638
C         52.56604        45.95717        -1.53429
C         51.25507        46.66644        -1.32784
C         52.46359        48.78037        -0.71025
C         51.28323        48.17004        -1.43764
C         52.39599        50.11465        -0.34131
C         51.16876        50.86796        -0.38639
C         52.37829        52.96554         0.19537
C         51.16960        52.25727        -0.05225
C         52.40442        54.46699         0.09910
C         51.08252        55.07412         0.49785
C         52.35080        57.26386         0.66719
C         51.10319        56.46209         1.10051
C         52.31828        58.63939         1.34604
C         51.09408        59.38639         0.84889
C         52.32538        61.48815         0.79450
C         51.16579        60.77288         0.60338
C         54.99671        40.15496        -1.30359
C         54.93112        41.54513        -1.04835
C         53.68961        42.29531        -1.18412
C         54.86851        44.42016        -0.71758
C         53.68807        43.72839        -1.11683
C         54.87730        45.84683        -0.54255
C         53.70437        46.60524        -0.78992
C         54.86570        48.61650        -0.04567
C         53.67633        47.99462        -0.51870
C         54.83620        50.01879         0.37650
C         53.56622        50.79175         0.25489
C         54.82231        52.93088         0.53120
C         53.61780        52.27881         0.29504
C         54.83921        54.33129         1.09934
C         53.60723        55.13066         0.74401
C         54.86200        57.22244         1.11936
C         53.63018        56.49444         0.90453
C         54.82804        58.65807         1.26091
C         53.63610        59.37727         1.22629
C         54.87071        61.66058         1.24343
C         53.56201        60.85153         1.26135
C         54.92622        62.98947         0.61419
C         57.38998        40.11139        -0.79843
C         56.18710        39.46337        -1.16209
C         57.36506        41.51782        -0.56507
C         56.12134        42.20297        -0.65571
C         57.34460        44.34209        -0.02377
C         56.03406        43.62654        -0.30808
C         57.35451        45.80805        -0.23448
C         56.08015        46.52980        -0.19087
C         57.32687        48.60056         0.45202
C         56.09580        47.91921         0.02829
C         57.27127        50.04586         0.66700
C         56.11408        50.74051         0.49382
C         57.36971        52.92627         0.61751
C         56.11126        52.21654         0.20106
C         57.33345        54.39507         0.51475
C         56.09949        55.11854         0.81532
C         57.38509        57.22910         1.01218
C         56.10879        56.51047         0.96855
C         57.38404        58.64635         1.15100
C         56.12477        59.36605         1.40317
C         57.39123        61.52315         0.81935
C         56.15708        60.89454         1.32586
C         57.36521        62.83329         0.29292
C         56.09213        63.52016         0.17617
C         59.86068        37.25744        -0.75055
C         58.67071        37.96674        -0.83016
C         59.85404        40.05610        -0.41492
C         58.63477        39.36894        -0.67822
C         59.86112        41.48694        -0.27248
C         58.60935        42.22769        -0.31454
C         59.83046        44.36355         0.10897
C         58.61879        43.61807        -0.13806
C         59.81774        45.71176         0.41974
C         58.63773        46.53742         0.10538
C         59.72896        48.51153         1.29377
C         58.53682        47.93897         0.53499
C         59.76820        50.03278         1.29198
C         58.50788        50.78758         1.01706
C         59.82731        52.92702         1.00507
C         58.55291        52.25227         0.78067
C         59.87086        54.33815         1.01710
C         58.67630        55.12329         0.69802
C         59.84886        57.22521         1.32530
C         58.61981        56.54924         1.03580
C         59.84161        58.66744         1.27278
C         58.59594        59.36528         1.13913
C         59.83089        61.45109         0.61886
C         58.60567        60.79162         0.90113
C         59.82993        62.80620         0.16495
C         58.58966        63.47784        -0.06212
C         59.81382        65.44667        -0.83264
C         58.62771        64.80609        -0.59186
C         62.41597        35.79084        -0.66795
C         62.33946        37.17562        -0.43474
C         61.08624        37.90967        -0.51485
C         62.31366        40.02432        -0.12708
C         61.08228        39.32652        -0.33677
C         62.31063        41.44352        -0.02752
C         61.07836        42.15953        -0.08819
C         62.35659        44.27006         0.43445
C         61.13273        43.66252        -0.19384
C         62.33307        45.67278         0.91446
C         61.02540        46.41219         0.91992
C         62.25353        48.59077         0.90944
C         61.05532        47.88751         0.91676
C         62.27650        50.04195         0.99260
C         61.05582        50.75245         1.14066
C         62.30276        52.83836         1.56714
C         61.01989        52.16079         1.18238
C         62.28127        54.32989         1.41130
C         61.09603        55.04934         1.31611
C         62.26469        57.19965         1.90974
C         61.05676        56.49611         1.48424
C         62.29228        58.76129         1.67174
C         61.04997        59.39234         1.22715
C         62.30633        61.42507         0.63122
C         61.07128        60.75802         0.81472
C         62.30727        62.81434         0.22110
C         61.06728        63.48144        -0.05852
C         62.29726        65.52814        -0.72120
C         61.07484        64.82689        -0.55033
C         62.36273        66.83999        -1.32596
C         64.80689        35.70138        -0.20518
C         63.64066        35.08740        -0.60992
C         64.76968        37.12853         0.11053
C         63.53467        37.88862        -0.12258
C         64.79240        40.03004         0.00235
C         63.54974        39.30131        -0.04107
C         64.77943        41.45488         0.05043
C         63.54963        42.15016         0.10714
C         64.81121        44.24141         0.71072
C         63.52949        43.56773         0.40252
C         64.83252        45.75772         0.83649
C         63.55813        46.48917         0.82027
C         64.76795        48.61812         0.60084
C         63.52610        47.87104         0.79376
C         64.73434        50.02614         0.53773
C         63.52171        50.76305         0.81004
C         64.73378        52.94867         0.88511
C         63.53111        52.17291         0.97252
C         64.80593        54.27437         1.31196
C         63.57025        54.97999         1.72909
C         64.86246        57.23729         1.95611
C         63.57253        56.44974         2.00712
C         64.83996        58.70581         1.62638
C         63.56099        59.41711         1.33468
C         64.79029        61.34303         0.25022
C         63.53853        60.70239         0.81837
C         64.77240        62.86604         0.42906
C         63.50604        63.54213         0.12035
C         64.73295        65.63925        -0.35342
C         63.53660        64.90820        -0.32200
C         64.70547        67.12996        -0.53320
C         63.48988        67.58738        -1.28959
C         67.32274        33.19086         1.06896
C         66.13967        33.76771         0.76223
C         67.35597        35.78541        -0.02426
C         66.11072        34.93903        -0.18986
C         67.35146        37.16739        -0.18373
C         66.09889        37.90938         0.07495
C         67.23976        40.06984        -0.32827
C         66.04181        39.35986        -0.11474
C         67.25818        41.48422        -0.23170
C         66.03304        42.17680         0.04022
C         67.26187        44.29378         0.31242
C         66.04768        43.56092         0.29696
C         67.26359        45.72961         0.36518
C         66.06356        46.48901         0.49556
C         67.20838        48.62071        -0.06235
C         65.99379        47.89538         0.38563
C         67.26370        50.10624         0.01446
C         65.94133        50.79075         0.12204
C         67.20890        53.06461         0.24085
C         65.91861        52.30280         0.26561
C         67.30842        54.34734         0.91113
C         66.10516        54.97339         1.48312
C         67.46713        57.24844         1.68197
C         66.15846        56.44703         1.84109
C         67.30297        58.52337         0.80806
C         66.13652        59.38603         1.25738
C         67.32512        61.44399         0.26887
C         66.10021        60.79730         0.79926
C         67.29766        62.79760        -0.01653
C         66.06813        63.58295         0.25843
C         67.08895        65.43662        -1.14011
C         66.09056        65.07406        -0.01178
C         67.12260        66.94400        -1.31784
C         66.00119        67.70480        -1.09311
C         67.20137        69.82583        -1.40480
C         66.06040        69.14951        -1.12229
C         69.87592        31.73394         1.29919
C         69.83317        33.09463         0.87114
C         68.59505        33.76947         0.66061
C         69.82555        35.81669        -0.01824
C         68.59665        35.10284         0.16621
C         69.78258        37.18841        -0.44758
C         68.56026        37.87492        -0.46922
C         69.75252        40.12818        -0.88570
C         68.47123        39.33614        -0.72183
C         69.77272        41.54787        -0.44358
C         68.49810        42.22000        -0.20431
C         69.77250        44.23971         0.55081
C         68.48525        43.57687         0.13466
C         69.71913        45.74332         0.45763
C         68.53262        46.41450         0.28450
C         69.80789        48.58609        -0.13920
C         68.51137        47.84264        -0.10431
C         69.77249        50.10364        -0.16529
C         68.45491        50.79159        -0.05732
C         69.78486        52.93034         0.42115
C         68.53408        52.27608         0.01030
C         69.79617        54.32792         0.62480
C         68.54201        55.05473         0.86214
C         69.78507        57.14620         0.52486
C         68.59852        56.42939         1.11521
C         69.80282        58.63766         0.73479
C         68.59659        59.31234         0.74071
C         69.76497        61.40221         0.19532
C         68.57824        60.73077         0.41581
C         69.72613        62.69864        -0.50210
C         68.47884        63.48693        -0.47368
C         69.68578        65.49944        -1.24940
C         68.45402        64.79937        -0.92367
C         69.66123        66.86177        -1.67307
C         68.35745        67.56401        -1.82303
C         69.72887        69.72633        -1.75328
C         68.39648        69.11973        -1.87400
C         69.97208        70.76235        -0.86030
C         72.29390        31.75908         1.25688
C         71.07377        31.08158         1.48777
C         72.29046        33.07337         0.84368
C         71.07128        33.78540         0.63843
C         72.28794        35.90161         0.05900
C         71.06077        35.15541         0.22554
C         72.29929        37.16762        -0.42320
C         71.05648        37.85945        -0.79503
C         72.28112        40.17794        -0.80878
C         71.05600        39.38608        -0.99553
C         72.22406        41.51113        -0.56157
C         70.98042        42.21412        -0.34436
C         72.23537        44.35209         0.37812
C         70.99054        43.73089        -0.22746
C         72.22338        45.63496         0.77362
C         70.99004        46.45260         0.70828
C         72.28711        48.69054         0.22979
C         71.03499        47.94065         0.42916
C         72.24461        50.05185         0.15813
C         71.01792        50.79920         0.21167
C         72.19953        52.86671         0.88881
C         71.00290        52.17968         0.51625
C         72.22118        54.23384         1.00601
C         71.04054        55.00464         0.82834
C         72.24650        57.18592         0.88567
C         71.08254        56.44319         0.82201
C         72.23997        58.60390         0.78138
C         71.06544        59.32821         0.69091
C         72.28280        61.53883         0.22316
C         71.05012        60.84864         0.75458
C         72.27132        62.71463        -0.42153
C         71.01611        63.39209        -0.84576
C         72.13107        65.58252        -1.28146
C         70.94990        64.85126        -1.09880
C         72.09261        66.91133        -1.68952
C         70.86664        67.55474        -1.91534
C         72.18821        69.68234        -2.24472
C         70.86239        69.00825        -2.44937
C         72.36050        70.72450        -1.37867
C         71.26585        71.26243        -0.65246
O         65.50778        63.32049         1.61037
O         63.57312        55.49946         3.12981
O         67.73084        48.06239        -1.31903
O         53.95503        50.22699         1.56743
O         71.10749        38.47577        -2.12990
O         62.13087        58.15137         2.99081
O         58.09932        54.87911        -0.64803
O         70.00195        49.28683        -1.38338
O         49.51030        46.61957        -3.09103
O         66.34275        60.47324         2.21262
O         56.48891        43.93129         1.07857
O         70.30385        62.61904        -1.87547
O         64.93505        44.87712         2.02547
O         58.22140        46.28707        -1.30488
O         65.62791        51.67664        -1.01634
O         68.90290        39.83744        -2.04112
O         58.95557        50.53661         2.41464
O         64.79443        61.07002        -1.12112
O         66.30439        55.45990         2.89845
O         45.88136        47.63017        -2.60317
O         54.08815        61.55807         2.45794
O         67.86687        53.00391        -1.06231
O         56.27750        60.20814         2.60130
O         45.53144        48.99356         0.89777
O         65.48581        37.49524         1.34496
O         64.91867        58.22717         3.02143
O         61.57514        45.82990         2.16830
O         39.07437        51.44472         1.98495
O         68.18870        68.30165        -3.07840
O         70.85603        47.44344         1.80265
O         46.58147        51.79358         1.57584
H         45.82335        51.28846         1.94662
O         66.22179        34.35870        -1.53821
H         67.05249        33.83707        -1.56384
O         70.64858        68.93133        -3.87866
H         69.72919        68.59295        -4.01335
O         47.19376        53.35319        -1.69368
H         47.73931        54.14219        -1.90735
O         52.56158        54.78618        -1.35118
H         51.86276        54.29183        -1.83241
O         71.02925        61.17345         2.19181
H         70.24928        60.72668         2.58708
O         69.98897        43.86814         1.94283
H         69.26834        44.26079         2.47898
O         48.62058        55.10986         2.30563
H         48.40773        54.20969         2.63268
O         45.68134        51.19927        -1.96124
H         46.23315        51.93302        -2.32024
O         51.15072        56.23368         2.53146
H         50.27056        55.86242         2.78861
O         42.71916        50.36653        -1.68998
H         42.00556        49.92533        -2.19596
O         64.60109        67.68489         0.82853
H         65.33355        67.25832         1.33849
O         52.90683        46.16017        -2.96315
H         52.66847        47.10141        -3.17515
O         56.16476        52.25943        -1.28580
H         56.46156        53.15945        -1.54665
O         59.52132        48.06644         2.66490
H         59.11768        48.82698         3.14890
O         51.49982        48.48260        -2.88156
H         50.74227        48.04483        -3.35097
O         39.64240        52.82112        -1.35061
H         40.38279        53.28319        -1.79808
O         66.95595        58.06614        -0.52229
H         67.78663        57.75442        -0.96344
O         43.65806        50.44476         1.85393
H         44.13192        49.59900         2.04335
O         61.31705        43.92567        -1.64701
H         60.51328        43.60321        -2.10898
O         62.41423        52.61876         3.03249
H         62.90184        53.38117         3.41810
O         52.24867        57.51397        -0.75393
H         52.39545        56.64952        -1.21680
O         52.14263        58.48084         2.77815
H         52.33141        59.34469         3.20170
O         69.57474        57.02111        -0.94943
H         69.68059        56.07223        -1.18400
O         67.86058        57.69584         2.99980
H         67.52693        57.03362         3.64520
O         54.81425        54.13500         2.56614
H         53.94119        53.75614         2.80430
O         70.85829        44.23424        -1.58328
H         71.52333        43.78800        -2.14750
O         48.71566        56.39460        -1.12825
H         48.79750        57.30620        -1.48272
O         66.55501        65.73629         1.20090
H         66.25442        65.16643         1.94857
O         66.52371        64.86332        -2.34498
H         67.18376        64.93234        -3.06598
H         37.58191        48.71752         0.87991
H         35.45731        49.90443         1.10847
H         37.31485        53.69943         0.28719
H         35.30940        52.36091         0.78249
H         39.23915        47.90095         0.29030
H         39.06168        54.78618         0.70441
H         41.30668        46.72955        -0.18831
H         41.15414        55.97975         0.87542
H         45.09483        44.72776        -1.16934
H         43.04832        45.76038        -0.39666
H         44.80990        58.20485         1.03283
H         42.74915        56.97117         0.80947
H         46.67661        43.99315        -2.13944
H         46.46378        59.24055         0.62601
H         48.78453        42.79487        -2.19341
H         48.56888        60.42789         0.54191
H         52.41421        40.54654        -1.43908
H         50.35635        41.79996        -1.75414
H         52.30121        62.58145         0.69893
H         50.27074        61.31673         0.26912
H         54.10036        39.60353        -1.61591
H         54.00522        63.58499         0.55425
H         56.18278        38.38440        -1.36344
H         56.07172        64.52867        -0.25728
H         59.82852        36.16696        -0.87456
H         57.74627        37.40437        -1.01369
H         59.78977        66.47255        -1.22331
H         57.69182        65.33819        -0.80672
H         61.51341        35.22784        -0.93930
H         61.47725        67.23473        -1.84430
H         63.65523        34.02040        -0.87264
H         63.50659        68.58098        -1.76093
H         67.33177        32.28813         1.69624
H         65.19198        33.32687         1.10381
H         67.24564        70.91694        -1.27771
H         65.17085        69.70209        -0.78844
H         68.93827        31.18688         1.46581
H         69.13163        71.21639        -0.31399
H         73.24602        31.23085         1.40382
H         71.08613        30.03145         1.81068
H         73.25296        33.56933         0.66206
H         73.24639        35.42532         0.30381
H         73.25686        37.67739        -0.59613
H         73.25219        39.69374        -0.97985
H         73.16591        42.07433        -0.50306
H         73.16544        43.77123         0.46364
H         73.12354        46.10099         1.20026
H         73.24988        48.16264         0.26026
H         73.19588        50.60010         0.11038
H         73.12673        52.30242         1.04927
H         73.16800        54.73587         1.24505
H         73.22028        56.68703         0.99082
H         73.20913        59.12093         0.79174
H         73.25535        61.09939         0.49148
H         73.23141        63.17146        -0.70630
H         73.10668        65.09820        -1.14286
H         73.03522        67.45053        -1.85185
H         73.03043        69.33912        -2.86256
H         73.35343        71.18251        -1.26168
H         71.42647        72.09347         0.04664
