         490
 CSIRO Nanostructure Databank - Neutral Graphene Oxide Data Set
C         37.80579        50.22544        -2.41571
C         36.63510        50.94870        -2.59237
C         37.82668        52.99620        -2.10455
C         36.64198        52.34089        -2.42688
C         40.33451        48.74882        -2.12826
C         40.23349        50.11146        -1.85309
C         39.02206        50.86669        -2.06922
C         40.28731        52.99146        -1.64709
C         39.03263        52.28885        -1.93150
C         40.36848        54.40577        -1.72673
C         42.69061        48.62203        -1.42363
C         41.49732        48.00695        -1.86082
C         42.72827        50.13624        -1.52895
C         41.39329        50.77170        -1.13485
C         42.65743        52.95123        -1.00321
C         41.44965        52.27396        -1.31171
C         42.69893        54.37275        -1.01600
C         41.53436        55.07538        -1.41184
C         45.09556        45.79041        -1.07027
C         43.91688        46.45963        -1.10347
C         45.01564        48.61168        -0.53674
C         43.83858        47.90433        -1.07048
C         45.04533        50.08330        -0.49839
C         43.88455        50.80554        -0.81731
C         45.01848        52.89300        -0.18891
C         43.85779        52.20806        -0.66785
C         44.98242        54.32249        -0.08024
C         43.89256        55.05693        -0.56492
C         45.07659        57.17400        -0.14107
C         43.97354        56.49587        -0.57736
C         47.50737        44.46291        -0.01703
C         47.58578        45.76761        -0.51633
C         46.42213        46.50534        -1.12254
C         47.57876        48.66906        -0.33254
C         46.33369        47.87453        -0.45171
C         47.50905        50.03357        -0.12095
C         46.24826        50.75919        -0.16060
C         47.44610        52.84446         0.44738
C         46.22491        52.16396         0.03789
C         47.36520        54.24941         0.89236
C         46.10163        55.03232         0.57654
C         47.35015        57.18313         0.85477
C         46.20759        56.50529         0.44241
C         47.42127        58.61845         0.81203
C         50.01472        44.21181        -0.00938
C         48.62758        43.69615         0.25228
C         50.03084        45.72241         0.12141
C         48.92152        46.47422        -0.58304
C         49.92800        48.59470         0.34957
C         48.83700        47.94474        -0.20225
C         49.93475        50.02917         0.50168
C         48.80139        50.81446        -0.12121
C         49.87494        52.88202         0.87993
C         48.66975        52.20682         0.43932
C         49.82335        54.32592         1.11186
C         48.61319        55.00230         1.08762
C         49.83369        57.20019         1.38452
C         48.51551        56.45536         1.50791
C         49.84246        58.61880         1.24408
C         48.57861        59.29831         1.04315
C         52.31431        41.42253         0.88069
C         51.13116        42.07676         0.81600
C         52.35941        44.25584         0.94465
C         51.01918        43.56487         0.98787
C         52.35374        45.65610         0.93355
C         51.09903        46.36378         0.66288
C         52.33092        48.52143         1.10850
C         51.00876        47.80843         1.06106
C         52.23767        49.94228         1.42729
C         51.02790        50.70449         1.03258
C         52.24845        52.85657         1.70028
C         51.03432        52.14705         1.12471
C         52.33183        54.29748         1.18586
C         51.03826        55.05491         1.35000
C         52.33240        57.15713         1.33815
C         51.04728        56.45833         1.44007
C         52.36292        58.66447         1.42355
C         51.04792        59.35871         1.19918
C         52.28351        61.48932         1.08843
C         51.10887        60.78690         1.21243
C         54.86400        39.96879         1.12952
C         54.81750        41.39198         1.07422
C         53.58130        42.10837         1.01082
C         54.82304        44.25587         1.02678
C         53.58398        43.53223         1.00608
C         54.80954        45.68676         1.04825
C         53.57005        46.39030         1.02726
C         54.79980        48.56622         1.12088
C         53.54437        47.83835         1.11437
C         54.80020        49.96931         1.20587
C         53.58424        50.71597         1.53282
C         54.78210        52.88230         1.34037
C         53.56104        52.16371         1.41398
C         54.81121        54.29033         1.47628
C         53.53304        55.03703         1.78900
C         54.75169        57.10410         0.73528
C         53.51625        56.47977         1.32753
C         54.79996        58.61231         0.76378
C         53.52390        59.29865         0.67060
C         54.82386        61.52754         0.63265
C         53.52244        60.85210         0.62582
C         54.93366        62.94330         0.86635
C         57.29875        39.96192         0.93044
C         56.05553        39.28183         1.07193
C         57.27478        41.37230         0.96474
C         56.05828        42.10296         1.04429
C         57.27564        44.29524         1.03877
C         56.06036        43.55073         1.02561
C         57.27659        45.69114         1.06882
C         56.04754        46.40585         1.06575
C         57.26844        48.53661         0.87474
C         56.04830        47.84102         1.02831
C         57.20657        49.98618         0.47852
C         56.00119        50.73049         1.01653
C         57.32832        52.82510         1.28973
C         56.00733        52.10650         1.15290
C         57.22213        54.28548         0.90882
C         56.11164        55.05038         1.61742
C         57.23817        57.15882         0.83558
C         56.04783        56.45436         1.06223
C         57.23799        58.59491         0.79806
C         56.01987        59.30513         0.72532
C         57.27067        61.43327         0.54016
C         56.04111        60.77080         0.60538
C         57.27147        62.86159         0.05155
C         56.11065        63.60121         0.67140
C         59.83925        37.10713         0.72070
C         58.61420        37.83461         0.83882
C         59.78458        39.93207         0.37198
C         58.53999        39.20904         0.72060
C         59.77730        41.43231         0.39907
C         58.51330        42.15466         0.72350
C         59.79403        44.30300         0.66696
C         58.59078        43.57765         1.23081
C         59.79394        45.70188         0.71071
C         58.58743        46.41890         1.29303
C         59.72400        48.58195         0.67803
C         58.52132        47.87935         0.88764
C         59.76362        49.99972         0.53258
C         58.50672        50.73074         0.63235
C         59.73493        52.82573         0.34649
C         58.49568        52.09055         0.69100
C         59.69582        54.29497         0.14414
C         58.42193        55.03364         0.40463
C         59.73342        57.16480         0.61500
C         58.49252        56.47806         0.67336
C         59.78339        58.57317         0.77886
C         58.51302        59.26705         1.25073
C         59.82836        61.46475         0.86416
C         58.50772        60.77059         0.99384
C         59.85812        62.79982         0.19572
C         58.60815        63.57895         0.10409
C         59.93701        65.62087        -0.15210
C         58.68944        64.91170        -0.18089
C         62.34012        35.85025        -0.51518
C         62.29780        36.93048         0.38904
C         61.07578        37.71029         0.67354
C         62.31288        40.03744         0.81490
C         61.11361        39.20047         0.53086
C         62.28363        41.47883         0.57348
C         61.05735        42.16540         0.48247
C         62.24440        44.31622         0.40696
C         61.01920        43.59153         0.48306
C         62.23293        45.73966         0.42810
C         61.00297        46.41792         0.57244
C         62.25161        48.60080         0.47037
C         61.02412        47.87194         0.95982
C         62.23161        50.00045         0.34220
C         60.99119        50.68884         0.48548
C         62.22672        52.88891         0.09234
C         61.04282        52.17610         0.71558
C         62.18258        54.27859        -0.01233
C         60.97348        55.03287         0.22324
C         62.24191        57.09511         0.63517
C         60.95649        56.40548         0.42313
C         62.28859        58.55637         0.71434
C         61.03268        59.29325         0.77480
C         62.38446        61.41571         1.16066
C         61.08647        60.68070         0.86081
C         62.43255        62.84474         0.63315
C         61.19110        63.52756         0.16982
C         62.37157        65.75872         0.37709
C         61.13166        64.99643         0.08526
C         62.52396        67.13356        -0.10108
C         64.80472        35.85927        -0.45177
C         63.57059        35.29466        -0.85854
C         64.80182        37.03791         0.35768
C         63.54128        37.37643         0.87568
C         64.79619        40.06594         1.06472
C         63.49292        39.49397         1.28019
C         64.75875        41.57071         1.17879
C         63.49239        42.21502         0.65780
C         64.70907        44.37065         0.41213
C         63.48902        43.61988         0.47925
C         64.70842        45.76570         0.29833
C         63.47142        46.47156         0.36423
C         64.67267        48.60272        -0.02754
C         63.46151        47.89108         0.29272
C         64.62827        49.99525        -0.23363
C         63.43467        50.72857        -0.01853
C         64.66038        52.86971        -0.44995
C         63.42077        52.15012        -0.17511
C         64.67827        54.28502        -0.49760
C         63.36983        55.04803        -0.54313
C         64.70995        57.16104        -0.01035
C         63.49841        56.37251         0.17591
C         64.73390        58.44588         0.47588
C         63.52099        59.19399         0.70355
C         64.83881        61.30402         0.63100
C         63.64429        60.64989         0.78978
C         64.90651        62.77277         1.01099
C         63.62089        63.50214         0.65632
C         64.94900        65.68140         0.50199
C         63.65880        64.98642         0.63991
C         64.94531        67.07263         0.34384
C         63.72655        67.75774        -0.01356
C         67.39667        33.19491        -1.18622
C         66.16547        33.93416        -1.23061
C         67.31407        35.81513        -0.09758
C         66.06949        35.20305        -0.71763
C         67.21235        37.32532         0.09563
C         66.01408        37.88596         0.51013
C         67.23309        40.10497         0.80478
C         65.95984        39.34195         0.80878
C         67.24300        41.49482         0.88384
C         65.98877        42.19657         0.60421
C         67.26007        44.39214         0.35189
C         65.98524        43.64981         0.31025
C         67.20936        45.80112         0.13353
C         65.95339        46.49015         0.10299
C         67.14357        48.60198        -0.38173
C         65.91452        47.88230        -0.10726
C         67.09753        49.94627        -0.72570
C         65.79529        50.67971        -0.89559
C         67.10234        52.86537        -0.66171
C         65.88362        52.16570        -0.59786
C         67.11929        54.28440        -0.62294
C         65.89481        54.99217        -0.59378
C         67.16843        57.14845        -0.37491
C         65.84689        56.51691        -0.77557
C         67.16082        58.21581         0.44749
C         66.03040        59.12547         0.82327
C         67.40985        61.36473         0.28250
C         66.09390        60.55480         0.16374
C         67.38281        62.75659         0.36885
C         66.16162        63.51658         0.56047
C         67.46190        65.68282         0.72119
C         66.16829        64.91039         0.52545
C         67.41958        67.14404         0.35546
C         66.19457        67.82757         0.32992
C         67.38775        69.94956         0.24716
C         66.20109        69.24436         0.27711
C         69.90574        31.69163        -0.93354
C         69.83786        33.08440        -0.71063
C         68.58581        33.80630        -0.88939
C         69.82343        35.94041        -0.30755
C         68.56543        35.32449        -0.86902
C         69.81589        37.40007        -0.17059
C         68.45548        38.11992         0.01910
C         69.72694        40.20312         0.62171
C         68.48818        39.46562         0.57489
C         69.73879        41.56841         0.92385
C         68.46314        42.31210         1.18255
C         69.70293        44.43740         0.49859
C         68.45802        43.72196         0.58993
C         69.68520        45.82782         0.15377
C         68.43695        46.52274         0.00422
C         69.63515        48.61502        -0.55619
C         68.40493        47.90626        -0.29386
C         69.60577        49.93320        -1.01726
C         68.31185        50.66776        -1.22185
C         69.54000        52.80737        -1.36385
C         68.41656        52.09431        -0.62741
C         69.55206        54.31257        -1.33714
C         68.46716        55.00487        -0.52626
C         69.77258        57.19411        -0.91795
C         68.40429        56.48495        -0.96622
C         69.89494        58.61234        -0.82026
C         68.95149        59.37713        -0.03142
C         69.65676        61.47823        -0.95667
C         68.63836        60.70554        -0.18943
C         69.86474        62.85495        -0.44728
C         68.66727        63.52038         0.24342
C         69.84644        65.68867        -0.10943
C         68.68387        64.98134         0.19985
C         69.87461        67.14054         0.00129
C         68.64046        67.85688         0.21963
C         69.88413        70.01174         0.12904
C         68.63264        69.28135         0.19082
C         69.92876        71.42197         0.24985
C         72.23516        31.65629        -0.30507
C         71.08659        30.98451        -0.73671
C         72.19208        33.02968        -0.07888
C         71.00832        33.76749        -0.27320
C         72.15199        35.93335         0.38763
C         70.97202        35.21996        -0.04898
C         72.18080        37.29396         0.53098
C         71.02109        38.10161         0.29422
C         72.21497        40.25462         0.58104
C         70.99000        39.48799         0.48617
C         72.23413        41.58387         0.82273
C         71.00013        42.33848         1.22740
C         72.13154        44.51822         0.60832
C         70.94512        43.78024         0.73322
C         72.12587        45.86103         0.24949
C         70.91267        46.55682         0.02229
C         72.09498        48.71960        -0.47887
C         70.89065        47.94064        -0.34887
C         72.09326        49.97014        -1.00560
C         70.84769        50.57424        -1.58705
C         71.93110        52.82684        -1.87829
C         70.82119        52.09757        -1.55522
C         71.94270        54.26008        -1.87030
C         70.83952        55.01105        -1.54268
C         72.02447        57.18042        -1.86977
C         70.88240        56.47330        -1.42596
C         72.03284        58.56721        -1.96164
C         70.95463        59.30682        -1.45577
C         72.06270        61.60218        -1.78881
C         70.86022        60.78311        -1.55918
C         72.06663        62.94842        -1.58892
C         70.98149        63.65463        -0.95583
C         72.21131        65.79738        -0.85294
C         71.02742        65.01917        -0.62988
C         72.24567        67.13851        -0.60139
C         71.06777        67.85315        -0.20144
C         72.31743        70.02121        -0.09084
C         71.10077        69.29707        -0.05114
C         72.33522        71.40105         0.03671
C         71.13242        72.10695         0.20440
O         65.91172        42.62982        -0.79528
O         45.49654        47.96087         0.72233
O         59.10926        61.51310         2.15138
O         69.69959        61.26806        -2.38874
O         69.07779        53.58973        -2.51173
O         57.31460        54.61138        -0.49513
O         69.76080        62.91668         1.01438
O         69.14308        38.07928        -1.29751
O         60.52569        39.48727        -0.80338
O         59.66458        53.37449        -1.01066
O         63.47106        38.26666         1.95230
O         62.85406        65.54835         1.75041
O         52.82733        50.26705         2.73200
O         60.65997        62.82884        -1.02545
O         58.86860        46.34688         2.71250
O         53.26121        59.99405        -0.56396
O         58.92756        42.01427        -0.67459
O         63.09802        56.35222         1.57957
O         46.35576        54.52752         1.94758
O         68.37310        58.64597         1.01400
O         46.70156        46.75478        -2.53750
H         47.68501        46.69355        -2.66003
O         56.98840        49.95406        -0.98039
H         57.05998        50.87501        -1.31351
O         68.89359        54.92980         0.86085
H         68.29114        55.48617         1.39991
O         68.39249        42.55840         2.64479
H         69.31675        42.76474         2.94215
O         68.80523        51.95956         0.75712
H         68.88283        52.86967         1.13029
O         65.95581        60.30182        -1.25739
H         65.88544        61.15842        -1.72740
O         70.85016        50.24852        -3.03084
H         70.08915        50.74004        -3.41866
O         66.05565        59.29897         2.25242
H         66.99183        59.44107         2.51273
O         50.39860        43.88176        -1.37998
H         50.30159        42.91285        -1.49762
O         65.55512        56.75979        -2.17142
H         66.28913        56.35216        -2.68853
O         49.17144        50.99121        -1.54271
H         49.29805        50.09520        -1.92273
O         52.56130        54.18638        -0.24329
H         52.84608        55.06650        -0.57791
O         49.33862        46.45552        -2.01199
H         49.71537        45.55444        -2.17223
O         52.06528        52.85212         3.15021
H         52.18225        51.90910         3.43350
O         58.82589        43.58004         2.66932
H         58.85985        44.55765         2.92452
O         63.07995        55.36460        -1.93450
H         63.00510        54.52224        -2.42956
O         52.70532        58.93269         2.83100
H         52.14501        58.35757         3.39505
O         64.98514        62.77602         2.48082
H         65.07010        63.71071         2.77082
O         50.56100        47.78426         2.46634
H         49.77488        47.19943         2.51927
O         41.20525        50.51362         0.28637
H         40.36222        50.93022         0.56182
O         50.43214        43.81692         2.30157
H         51.05853        43.48488         2.97849
O         48.19454        56.41051         2.94792
H         47.41994        55.80133         3.03173
O         61.16203        52.34163         2.16551
H         61.95945        51.85452         2.46315
O         56.96882        62.80197        -1.39719
H         56.09792        62.35846        -1.49156
O         68.44356        35.71333        -2.25851
H         68.62628        36.68475        -2.30921
O         58.51872        59.06888         2.69955
H         58.94560        59.87286         3.08461
O         67.43253        35.27250         1.25328
H         66.58788        35.44484         1.72057
O         61.10341        47.84087         2.43112
H         60.30419        47.29256         2.73596
O         68.17041        56.42435        -2.40784
H         68.24433        57.33444        -2.76629
O         64.79047        41.88816         2.60779
H         64.02548        41.44993         3.03683
O         53.41746        55.11878         3.23206
H         53.06173        54.25399         3.55858
O         54.54820        56.79740        -0.73117
H         55.42058        56.87817        -1.17723
O         62.39618        61.56947         2.61534
H         63.28742        61.92849         2.85707
O         56.42284        55.19503         3.02807
H         56.71829        54.31773         3.36764
O         65.47513        50.62749        -2.34047
H         66.23780        51.05105        -2.80471
O         57.62800        52.83015         2.73345
H         57.79337        51.90564         3.01845
O         68.14652        50.85690        -2.67968
H         68.07265        49.96047        -3.07402
O         71.08647        42.46093         2.71502
H         71.24748        41.55906         3.06757
O         42.90962        50.43594        -2.94456
H         43.73329        50.00021        -3.24790
O         67.62238        65.67084         2.19575
H         68.48048        66.10105         2.39972
H         37.77513        49.13320        -2.52654
H         35.70194        50.42929        -2.85030
H         37.80423        54.08698        -1.97966
H         35.71436        52.91577        -2.55326
H         39.47471        48.20859        -2.54994
H         39.49267        54.99324        -2.03185
H         41.45828        46.91673        -1.99395
H         41.53710        56.17201        -1.46129
H         45.08600        44.69546        -1.17333
H         42.98382        45.88426        -1.19589
H         45.08491        58.26797        -0.23279
H         43.13934        57.07608        -0.99249
H         46.51932        43.99564         0.11116
H         46.51697        59.19608         0.57643
H         48.49473        42.65915         0.59116
H         48.56521        60.39478         0.98986
H         52.31063        40.32618         0.80253
H         50.20097        41.49481         0.72850
H         52.27776        62.57182         1.27902
H         50.19139        61.35923         1.41539
H         53.93243        39.39263         1.20657
H         54.04696        63.50430         1.19477
H         56.02942        38.18426         1.09228
H         56.17200        64.68746         0.82843
H         59.78295        36.00892         0.73795
H         57.70906        37.24854         1.04949
H         59.89829        66.71618        -0.23642
H         57.77397        65.49541        -0.35168
H         61.41235        35.44427        -0.94115
H         61.66294        67.65874        -0.53665
H         63.57954        34.41568        -1.51688
H         63.79158        68.80250        -0.34450
H         67.33476        32.10878        -1.34387
H         65.26787        33.40606        -1.58353
H         67.34709        71.04648         0.23978
H         65.25906        69.80638         0.30707
H         69.01644        31.14789        -1.27974
H         69.00221        71.99282         0.39636
H         73.17202        31.10450        -0.14717
H         71.11629        29.90182        -0.92143
H         73.11057        33.52997         0.25500
H         73.06869        35.37205         0.60972
H         73.10887        37.77423         0.87111
H         73.16336        39.74259         0.36228
H         73.20161        42.10484         0.84414
H         73.10000        44.04052         0.80825
H         73.08764        46.38353         0.16435
H         73.04744        48.29543        -0.13021
H         73.03873        50.52593        -1.08557
H         72.87809        52.31571        -2.10249
H         72.90790        54.74509        -2.06998
H         72.89134        56.63069        -2.25829
H         72.88665        59.07372        -2.43141
H         72.96585        61.11386        -2.18150
H         72.97256        63.50894        -1.85787
H         73.12684        65.30002        -1.19878
H         73.18523        67.68148        -0.76533
H         73.27268        69.49278        -0.20828
H         73.29074        71.94276         0.01020
H         71.14702        73.20075         0.30709
