         320
 CSIRO Nanostructure Databank - Neutral Graphene Oxide Data Set
C         30.29822        31.22016         0.12876
C         30.37732        32.45350         0.55605
C         30.31312        36.08035         0.01929
C         30.51121        37.29216        -0.30333
C         30.35246        40.49472        -0.85622
C         30.30521        41.73215        -0.83600
C         32.94024        28.88190        -0.99768
C         31.82503        29.44183        -0.90485
C         32.77357        31.51232         0.08937
C         31.48155        30.68655        -0.32727
C         32.66016        33.07835        -0.23527
C         30.95503        33.66071         0.49368
C         32.96408        36.20897         0.18442
C         30.03718        34.78409         0.36826
C         32.82624        37.51401        -0.54164
C         31.51673        38.22450        -0.42998
C         32.79192        40.42911        -0.75165
C         31.45213        39.54407        -1.15776
C         32.67513        41.77753        -0.03600
C         31.32813        42.55490        -0.18757
C         32.74237        44.53065        -0.42848
C         31.64330        43.97008        -0.36943
C         35.65688        27.33932        -0.36972
C         35.34443        28.72803        -0.28631
C         34.20543        29.40892        -0.58675
C         35.27046        31.57666         0.16551
C         34.09266        30.95257        -0.53760
C         35.23950        33.03842         0.28939
C         33.94053        33.83753         0.19204
C         35.28211        35.95941        -0.26429
C         34.08324        35.30173        -0.18534
C         35.44197        37.42175        -0.75458
C         34.11991        38.20852        -0.86344
C         35.41606        40.45098        -0.33213
C         34.13393        39.73295        -0.81964
C         35.10201        41.51043         0.75769
C         33.97022        42.51206         0.31811
C         35.29941        44.82464        -0.15326
C         34.04265        44.08471         0.08624
C         35.60442        45.85033        -1.07922
C         37.76556        27.14616         0.71411
C         36.64026        26.59918        -0.17543
C         37.86634        28.63498         0.22449
C         36.52694        29.42135         0.44996
C         37.78402        31.60988         0.67076
C         36.60692        30.89115        -0.00176
C         37.80163        33.06093         0.38672
C         36.54210        33.74084        -0.11590
C         37.81999        35.95142        -0.08824
C         36.49801        35.24285         0.28989
C         37.79932        37.44422         0.40879
C         36.54914        38.18759        -0.05461
C         37.72193        40.20386         0.80584
C         36.52897        39.52605         0.13287
C         37.62865        41.72123         0.78306
C         36.40824        42.23084         1.06858
C         37.78573        44.91000         0.24184
C         36.47936        44.45960         0.53000
C         37.96299        46.03116        -0.63486
C         36.71974        46.42446        -1.20491
C         40.18012        24.51785        -0.51453
C         39.21510        25.13774        -0.06333
C         40.36255        27.23147         0.15971
C         39.13598        26.41698         0.68687
C         40.33820        28.63366         0.28012
C         39.12168        29.28338         0.90722
C         40.39701        31.55529         0.71064
C         39.07497        30.83338         0.86836
C         40.33657        33.06869         0.83270
C         39.11865        33.69561         0.09197
C         40.48635        36.03084        -0.09168
C         38.93086        35.17153         0.58557
C         40.30271        37.42728         0.45254
C         39.09363        38.19642        -0.06569
C         40.23196        40.31665         0.66343
C         39.08402        39.63108         0.42953
C         40.18760        41.82540         0.96046
C         38.87160        42.46906         0.36262
C         40.29619        44.80154         0.50584
C         38.95044        44.20862         0.87560
C         40.37640        46.07807        -0.04025
C         39.20315        46.71570        -0.60427
C         40.36673        48.89630        -0.55715
C         39.45415        48.09670        -0.84654
C         42.79939        24.57299        -0.94361
C         41.57740        24.96095        -0.17463
C         42.79837        27.29303        -0.60227
C         41.52406        26.53414        -0.22860
C         42.80010        28.67485         0.07693
C         41.48437        29.41863        -0.32284
C         42.82181        31.60385        -0.37758
C         41.60337        30.85620         0.18041
C         42.83717        33.09195        -0.02292
C         41.60705        33.81692         0.40995
C         42.91162        36.00400         0.41285
C         41.62073        35.18678         0.45000
C         42.85594        37.36201         1.17231
C         41.53076        38.12210         0.94708
C         42.79672        40.27981         0.48314
C         41.54894        39.64566         1.09653
C         42.77985        41.76225         0.24176
C         41.43681        42.56675         0.29240
C         42.83795        44.70440         0.28600
C         41.56476        44.01384         0.87313
C         42.82325        46.19926         0.69728
C         41.68340        46.90330        -0.10362
C         42.87857        49.04586         0.25734
C         41.48754        48.43542         0.36054
C         43.87041        25.18372        -0.86724
C         45.36181        27.31119        -0.63425
C         44.12631        26.51764        -0.21994
C         45.35529        28.75318         0.00299
C         44.09985        29.45274        -0.05489
C         45.27540        31.55885         0.36089
C         44.10736        30.87879         0.05851
C         45.46021        33.02567         0.03980
C         44.15155        33.81771         0.12603
C         45.06809        35.40929         1.73681
C         44.05927        35.10541         0.85828
C         45.41124        37.51412         0.35308
C         44.10331        38.17445         0.71948
C         45.35927        40.23413         0.08242
C         44.09197        39.52019         0.55649
C         45.33046        41.66737         0.68209
C         44.13782        42.51355         0.09501
C         45.38090        44.75611         0.20822
C         44.13777        43.96097         0.71588
C         45.44564        46.18724         0.86074
C         44.19161        46.92251         0.50458
C         43.87082        48.26324         0.35851
C         47.64858        27.25608         0.33674
C         46.64980        26.73927        -0.15322
C         47.75382        28.60776         0.97725
C         46.48155        29.37171         0.52841
C         47.80642        31.59375         0.81403
C         46.45405        30.83384         0.97176
C         47.87465        32.96236         0.80400
C         46.58544        33.64849         0.84001
C         48.17762        36.10249         1.14573
C         46.34649        34.74362         1.60427
C         47.95665        37.38088         0.67278
C         46.70270        38.17359         0.71956
C         47.90168        40.21289         0.02948
C         46.67456        39.51529         0.40668
C         47.82208        41.69923        -0.13037
C         46.66764        42.44020         0.51180
C         47.88730        44.64436        -0.19159
C         46.67719        43.94221         0.37157
C         47.60903        46.00631        -0.15938
C         46.72220        46.82532         0.22444
C         49.77502        29.20842        -0.50128
C         48.95281        29.40631         0.52673
C         50.31614        31.53837         0.71589
C         49.06542        30.80955         1.15850
C         50.37710        32.88744         0.54123
C         49.21072        33.71217         1.09111
C         50.40013        35.83440         0.21380
C         49.28914        35.22596         0.73411
C         50.42264        37.38339         0.14318
C         49.03799        37.95975        -0.23684
C         50.35577        40.19152        -0.56337
C         49.03349        39.50193        -0.26064
C         50.25216        41.65552        -1.12727
C         49.03039        42.44745        -0.60367
C         50.32255        44.42370        -1.07805
C         49.20448        43.93659        -0.19013
C         50.67897        29.53605        -1.41831
C         52.27874        31.55975        -1.37629
C         51.61892        30.39406        -0.85532
C         52.37799        32.68660        -0.86825
C         51.61566        33.55976         0.02443
C         52.60770        35.73457        -1.00933
C         51.64082        35.05272        -0.11353
C         52.24843        36.92856        -1.28910
C         51.46291        37.95911        -0.86497
C         52.47017        40.20331        -1.64144
C         51.26237        39.29760        -1.51067
C         52.57733        41.43435        -1.66184
C         51.68019        42.40504        -0.95424
C         51.32398        43.79173        -1.43122
O         42.63343        40.79591        -0.87497
O         51.42965        30.69370         0.55454
O         32.40309        35.97698         1.24464
O         47.92159        42.20909        -1.52247
O         46.97436        43.28014         1.65210
O         33.61617        40.46866        -1.96484
O         52.29578        34.38120         1.00229
O         36.29949        43.53623         1.55275
O         40.14854        41.93324         2.36249
O         40.46312        35.96840        -1.39609
O         43.45716        33.83899        -1.16620
O         34.50254        33.54025         1.49822
O         33.80792        43.49673         1.38091
O         33.36381        37.55705        -1.93789
O         41.43626        31.01573         1.61410
O         31.70945        41.95840         1.05547
O         45.51139        36.61419        -0.47684
O         40.52369        37.55460         1.86348
O         47.38738        35.51905         2.17849
O         38.25517        31.25987         2.02000
O         49.35842        33.63351         2.54115
H         48.69875        34.25229         2.93332
O         44.18120        26.29380         1.17912
H         43.50480        25.60715         1.41040
O         41.69880        43.95938         2.29519
H         41.12412        43.20250         2.63123
O         32.90820        31.35302         1.49326
H         32.07944        31.63913         1.93232
O         38.14223        28.55545        -1.17640
H         37.87187        29.39573        -1.61737
O         45.92525        33.06478        -1.34214
H         45.17769        33.39061        -1.89371
O         46.22827        30.82624         2.41784
H         46.81240        30.11722         2.79106
O         32.45630        33.33371        -1.56432
H         31.91016        32.62980        -1.97293
O         44.26732        43.88851         2.13367
H         43.38017        44.05764         2.55092
O         45.12797        36.50866         2.52265
H         46.02998        36.54132         2.91845
O         41.22920        29.42187        -1.72644
H         42.00407        29.80457        -2.19706
O         36.91191        30.92587        -1.43763
H         36.92639        31.88993        -1.70373
O         39.50182        26.09776         2.05283
H         39.56022        26.96793         2.52540
O         38.00310        35.86704        -1.49936
H         37.37931        36.49437        -1.95244
O         42.80432        27.48024        -2.02062
H         42.93296        26.60430        -2.44575
O         42.05739        47.08432        -1.46727
H         42.44573        46.23905        -1.80243
O         42.75573        31.50689        -1.81780
H         43.19982        32.30679        -2.18565
O         37.26703        27.09326         2.04028
H         37.45282        26.19870         2.40202
O         35.97731        41.19737        -1.44901
H         35.31483        41.16538        -2.18240
O         49.70035        43.92391         1.15175
H         49.68500        44.83693         1.50724
O         36.54584        33.65074        -1.57966
H         37.37509        34.11268        -1.87952
O         50.73072        37.81642         1.47260
H         51.63604        37.51962         1.70247
O         45.32959        40.27099        -1.37083
H         44.98354        39.41110        -1.69260
O         34.55668        40.81186         1.87984
H         34.30538        41.47559         2.55806
O         36.37528        35.32944         1.71799
H         35.60774        34.76330         2.00269
O         37.83934        37.50083         1.82368
H         37.11175        36.95037         2.19443
O         42.57804        46.28432         2.10190
H         42.08958        47.11736         2.30398
O         50.09215        41.58633        -2.55330
H         49.14497        41.77122        -2.76171
O         42.79225        44.68238        -1.14200
H         42.32454        43.86587        -1.45852
O         43.07169        36.43540        -0.95233
H         43.10381        35.62883        -1.51869
O         41.11473        42.75570        -1.10062
H         41.20170        41.87893        -1.54294
O         38.77269        44.13288         2.27110
H         39.23181        43.31129         2.61434
O         41.05232        48.52265         1.69202
H         40.95339        49.46348         1.94768
O         39.14202        38.27609        -1.49591
H         39.56703        37.43659        -1.82544
O         44.36484        42.66626        -1.31260
H         44.42805        41.75643        -1.70345
O         45.37092        27.45505        -2.04146
H         46.22333        27.85030        -2.31626
O         39.38452        33.60906        -1.31997
H         39.88019        34.41963        -1.62332
O         47.71158        28.50694         2.39408
H         48.62334        28.40153         2.73780
O         45.28874        45.07339        -1.18259
H         45.01443        44.26490        -1.67862
O         45.12373        41.43058         2.07438
H         45.11790        42.31573         2.52265
O         52.04782        42.51849         0.38791
H         52.98198        42.80301         0.44750
O         48.77391        37.51424        -1.58202
H         47.84871        37.73944        -1.81311
O         41.69298        39.85259         2.52378
H         41.10450        40.62876         2.77681
O         49.11730        30.67999         2.59813
H         49.29453        31.58492         2.95315
O         38.92955        35.38053         1.90942
H         39.56159        34.79383         2.39396
O         37.61783        39.92854         2.23124
H         38.41759        40.31177         2.65895
O         42.65565        28.48867         1.50438
H         43.40695        27.92799         1.81746
O         39.13976        28.89753         2.30120
H         38.56379        29.54861         2.77315
O         31.46062        39.33707        -2.55132
H         32.15816        38.67188        -2.76068
O         50.68559        39.07240        -2.77401
H         50.54078        39.95853        -3.19027
O         35.88142        37.30460        -2.14407
H         35.08798        37.04755        -2.67128
O         41.82496        24.63226         1.18556
H         41.03517        24.91700         1.71298
O         34.11917        31.38879        -1.92179
H         34.98523        31.10759        -2.29673
O         51.05666        40.22170         0.68954
H         50.58409        40.80362         1.32042
O         36.20329        29.48360         1.83547
H         36.20399        28.56785         2.20116
O         40.23684        33.26708         2.26875
H         40.72927        32.53152         2.70095
O         38.79453        42.41617        -1.03736
H         37.89652        42.11735        -1.31430
O         28.74766        34.44339         0.62998
H         28.17492        35.23461         0.57730
O         45.64502        46.11847         2.24748
H         45.39813        46.96899         2.66331
O         42.88421        37.15578         2.58471
H         42.47168        37.94261         3.00982
