         244
 CSIRO Nanostructure Databank - Neutral Graphene Oxide Data Set
C          1.50883         1.99919         0.51597
C          1.44367         3.40197         0.43304
C          2.68359         1.33171         0.22567
C          2.55096         4.16403         0.04484
C          1.33090         6.33732         0.37505
C          1.29724         7.71711         0.36744
C          2.50572         5.62573         0.02249
C          2.45779         8.48369         0.07794
C          1.20302        10.67019         0.21004
C          1.17525        12.01096         0.42698
C          2.43519         9.91639         0.17292
C          2.41190        12.73889         0.88746
C          1.22698        14.98464         0.97258
C          1.23301        16.40187         0.97362
C          2.38092        14.25482         0.73606
C          2.41847        17.11777         0.84865
C          2.45495        18.57617         0.84148
C          3.83338         2.06080        -0.17970
C          3.77043         3.48324        -0.28679
C          5.04409         1.39166        -0.49951
C          4.92301         4.19581        -0.73379
C          3.65128         6.36846        -0.34750
C          3.65773         7.78417        -0.27277
C          4.81978         5.66114        -0.91826
C          4.88602         8.53149        -0.48036
C          3.66928        10.63613         0.14997
C          3.66266        12.07484         0.34541
C          4.85721         9.93184        -0.16706
C          4.80323        12.84582         0.13049
C          3.60534        14.97150         0.50537
C          3.64745        16.40615         0.65458
C          4.77958        14.27560         0.16715
C          4.87639        17.11451         0.64420
C          3.61613        19.25824         0.90735
C          4.92113        18.54105         1.13638
C          6.16688         2.09585        -0.89756
C          6.11462         3.51516        -1.01929
C          7.41647         1.34131        -1.28844
C          7.36959         4.23551        -1.36674
C          6.07977         6.46232        -1.23158
C          6.08572         7.88061        -0.84925
C          7.39963         5.74672        -1.41630
C          7.33669         8.62991        -1.10893
C          6.11963        10.66888        -0.14655
C          6.09729        12.16114        -0.03071
C          7.32711        10.08340        -0.80219
C          7.28208        12.84254        -0.70784
C          5.99732        15.05589        -0.13350
C          6.07883        16.47186         0.29578
C          7.27295        14.35049        -0.47327
C          7.30146        17.18063         0.16435
C          6.15305        19.28592         0.69494
C          7.32329        18.62070         0.36969
C          8.68143         2.14079        -1.06723
C          8.64395         3.52840        -1.11859
C          9.89074         1.44233        -0.84079
C          9.88773         4.31676        -1.09955
C          8.66748         6.45711        -1.06643
C          8.70810         7.95798        -1.28353
C          9.84400         5.78202        -0.85054
C          9.82519         8.62496        -0.47586
C          8.59653        10.77198        -0.45848
C          8.54976        12.12825        -0.30348
C          9.76505         9.97146        -0.16616
C          9.66689        12.88460         0.35573
C          8.54786        15.04360        -0.19809
C          8.54073        16.50306        -0.09072
C          9.70074        14.32733        -0.06323
C          9.75128        17.19665         0.01904
C          8.59133        19.31340         0.27629
C          9.78038        18.61686         0.17576
C         11.11020         2.10860        -0.64688
C         11.18338         3.57262        -0.85665
C         12.28915         1.42245        -0.32626
C         12.34621         4.30774        -0.30832
C         11.08173         6.47220        -0.45377
C         11.03725         7.87214        -0.24062
C         12.29096         5.74949        -0.17512
C         12.23155         8.58394         0.18597
C         10.88300        10.65863         0.57974
C         10.96732        12.13667         0.25989
C         12.18975         9.93971         0.46170
C         12.20066        12.80675         0.20916
C         10.98862        15.03078        -0.33213
C         11.03679        16.43375         0.24674
C         12.23063        14.25897         0.01344
C         12.28825        17.12089        -0.24743
C         11.14600        19.28156         0.30134
C         12.20921        18.58452        -0.57992
C         13.49744         2.12645        -0.09181
C         13.46784         3.57222         0.02580
C         14.70863         1.43112         0.03097
C         14.65637         4.22503         0.66610
C         13.48665         6.44535         0.23006
C         13.48016         7.86606         0.35218
C         14.70388         5.71828         0.47790
C         14.67163         8.58764         0.67582
C         13.38278        10.70726         0.94829
C         13.41062        12.10787         0.41442
C         14.69592         9.98327         0.80406
C         14.67261        12.88456         0.65783
C         13.40557        14.94864        -0.06510
C         13.44591        16.39054        -0.30917
C         14.65023        14.15872        -0.14970
C         14.73377        17.02676        -0.58881
C         13.57678        19.22241        -0.54738
C         14.74357        18.49841        -0.63463
C         15.96562         2.10423         0.13916
C         15.96514         3.54475         0.34226
C         17.15270         1.38001         0.09776
C         17.14221         4.24086         0.51531
C         15.91607         6.36765         0.74078
C         15.90009         7.82323         0.98391
C         17.15912         5.65971         0.82214
C         17.16495         8.53814         1.31947
C         15.92424        10.73106         0.84802
C         15.95608        12.09647         0.54529
C         17.22707        10.06186         1.26903
C         17.18021        12.81354         0.22555
C         15.90811        14.82604        -0.55716
C         15.89637        16.30366        -0.71476
C         17.17385        14.10067        -0.28329
C         17.15862        16.97594        -1.19944
C         16.02806        19.15317        -0.68788
C         17.20878        18.44738        -0.85889
C         18.44748         2.04653         0.14257
C         18.43639         3.54328         0.35937
C         19.68680         1.31688         0.48157
C         19.58351         4.13435         1.14186
C         18.40748         6.33174         1.00564
C         18.48901         7.78352         1.45184
C         19.62685         5.63384         1.00480
C         19.70744         8.50047         0.90271
C         18.38369        10.60079         0.41159
C         18.50752        12.13556         0.56101
C         19.70439         9.87572         0.61528
C         19.71936        12.64977        -0.18643
C         18.39391        14.75842        -0.81406
C         18.44338        16.22847        -0.89712
C         19.71104        14.00658        -0.75077
C         19.65491        16.89206        -0.98390
C         18.47343        19.08278        -0.90558
C         19.66804        18.35409        -1.03209
C         20.83999         1.98210         0.76836
C         20.88629         3.41667         0.91484
C         22.06376         4.13114         1.01493
C         20.88852         6.30468         1.04399
C         20.91804         7.76305         0.87907
C         22.06532         5.54649         1.09623
C         22.11798         8.44606         0.61035
C         20.91982        10.54528         0.31648
C         20.91503        11.95926        -0.09777
C         22.12020         9.81219         0.36279
C         22.13262        12.64714        -0.43622
C         20.96750        14.76730        -0.79863
C         20.93184        16.18268        -0.96070
C         22.15971        14.00651        -0.67581
C         22.12236        16.93598        -1.08291
C         20.90669        19.03468        -1.12472
C         22.10573        18.33042        -1.17135
O          5.11369         6.13183        -2.28009
O         15.08609        14.05734        -1.54453
O          6.44062        11.33276         1.12756
O          7.11409         9.65920        -2.17556
O         18.69871         3.04184        -0.96551
O         16.28569         8.12305         2.42790
O          7.41619         4.96339        -2.64930
O         18.91997        14.07856        -2.01635
O         10.80420         3.98195        -2.21113
O          6.49187        14.98193        -1.55139
O         11.57958        19.17325         1.67166
H         10.93408        19.64739         2.23541
O         11.02750        15.21404        -1.78841
H         11.01806        14.32791        -2.20795
O         17.98423        10.32881        -0.95532
H         18.60698        10.78846        -1.55833
O         17.07624        16.92098        -2.67061
H         16.20773        17.29525        -2.93034
O         18.76412         7.70804         2.88830
H         17.90103         7.50267         3.31759
O         13.20202        10.88022         2.42985
H         13.68706        11.71266         2.66586
O          5.06157        18.45398         2.61360
H          5.86441        17.91997         2.79550
O          9.09668         8.10665        -2.67325
H          8.53366         8.82328        -3.05368
O         14.46145         4.02695         2.12333
H         15.21839         4.45751         2.57636
O          2.46833        12.52891         2.35093
H          2.62385        11.57184         2.50080
O         18.81381        12.52679         1.92846
H         18.38470        11.88252         2.54341
O         19.22423         3.88264         2.55154
H         19.87366         4.36263         3.10849
O         10.52534        10.56025         2.02433
H         11.38044        10.70720         2.51210
O         11.69915        18.70450        -1.94433
H         12.10995        17.99905        -2.48721
O         17.42811        10.45174         2.65563
H         16.86787         9.84342         3.19306
O         14.62963        13.28499         2.09264
H         15.54468        13.50922         2.36946
O         11.17434        16.34514         1.69151
H         11.38373        17.25719         2.01041
O          7.48195         0.08113        -0.61491
H          7.52253         0.24761         0.34877
O          7.13353        12.61251        -2.12967
H          6.68275        13.40793        -2.50263
O          9.29458        12.93760         1.78104
H          9.50109        12.03976         2.15426
H          0.61613         1.43722         0.82383
H          0.49433         3.89090         0.68803
H          2.73931         0.23638         0.29846
H          0.41686         5.79276         0.64559
H          0.36381         8.22733         0.64125
H          0.26247        10.14771        -0.01928
H          0.21332        12.54346         0.39976
H          0.27539        14.46775         1.16186
H          0.28513        16.94035         1.11818
H          1.49739        19.11289         0.75753
H          5.09039         0.29468        -0.43522
H          3.62041        20.35855         0.90002
H          7.34954         1.10666        -2.38700
H          6.18088        20.37301         0.86909
H          9.85632         0.34522        -0.77090
H          8.59796        20.40965         0.38179
H         12.28498         0.32327        -0.27861
H         11.07290        20.36851         0.02176
H         14.70546         0.33509        -0.06728
H         13.63098        20.32247        -0.57229
H         17.11686         0.27998         0.08762
H         16.06195        20.24838        -0.57892
H         19.67869         0.21830         0.42118
H         18.52475        20.17893        -0.81457
H         21.77652         1.41879         0.90301
H         23.02829         3.60456         0.95921
H         23.03977         6.05097         1.13976
H         23.07377         7.90610         0.58782
H         23.08077        10.30452         0.16416
H         23.08894        12.10949        -0.40100
H         23.13603        14.49604        -0.79708
H         23.09225        16.42136        -1.10825
H         20.91008        20.13346        -1.16463
H         23.05566        18.87579        -1.26045
