         651
 CSIRO Nanostructure Databank - Neutral Graphene Oxide Data Set
C          5.76967        31.66241         0.47284
C          5.71011        33.01111         0.47004
C          8.45482        27.57801        -0.59185
C          8.34442        28.91504        -0.27358
C          7.09726        29.59622        -0.00485
C          8.22681        31.77322         0.31165
C          7.02333        30.95835         0.23571
C          8.20532        33.14273         0.22673
C          6.85951        33.87271        -0.00766
C          7.71798        36.21797         0.15099
C          6.84214        35.27481         0.61994
C          8.09696        37.53536         0.60406
C         11.13661        23.49189        -1.51102
C         11.05018        24.85723        -1.11777
C          9.80335        25.53471        -1.03952
C         10.96041        27.62130        -0.56562
C          9.73121        26.90265        -0.74936
C         10.91354        29.08049        -0.34742
C          9.57569        29.73868        -0.19944
C         10.75811        31.77732         0.64280
C          9.47569        30.99434         0.63883
C         10.69799        33.26144         0.92125
C          9.46807        33.87994         0.27406
C         10.75266        35.98848        -0.21891
C          9.57243        35.12812        -0.25889
C         10.62137        37.50039        -0.02207
C          9.34695        38.16701         0.41984
C         10.69142        40.26452         0.76660
C          9.47097        39.54055         0.77052
C         10.73880        41.66867         0.90020
C         13.65267        19.26881        -2.17780
C         13.59123        20.69383        -1.96434
C         12.43577        21.44142        -2.03905
C         13.55603        23.53136        -1.21850
C         12.36272        22.82389        -1.59048
C         13.50789        24.88305        -0.89318
C         12.25771        25.57528        -0.83282
C         13.46443        27.80458        -0.46504
C         12.19434        26.97278        -0.56140
C         13.28938        29.06898         0.35515
C         12.09499        29.72315         0.28454
C         13.16612        31.85430         1.08046
C         11.94368        31.11346         0.69445
C         13.22327        33.28379         0.71496
C         12.00311        33.95022         0.52457
C         13.21750        35.99208        -0.02527
C         12.01420        35.30135         0.10948
C         13.16832        37.50038        -0.27659
C         11.91082        38.18840         0.25429
C         13.18624        40.28305         0.68407
C         11.94161        39.52940         0.59196
C         13.19437        41.65876         0.69603
C         11.95671        42.40816         0.81509
C         13.24023        44.56126         0.79063
C         12.01430        43.81144         0.87201
C         13.25080        45.96827         0.78094
C         16.17035        15.04400        -1.99874
C         16.14631        16.47621        -2.05800
C         14.92608        17.13984        -2.10576
C         16.11858        19.33871        -1.90606
C         14.83307        18.55844        -2.02905
C         15.95456        20.51399        -0.93932
C         14.74533        21.32162        -1.25563
C         16.02946        23.37992        -0.57740
C         14.88015        22.81804        -1.38191
C         16.04995        24.84026        -0.43822
C         14.76473        25.63266        -0.63509
C         15.76122        27.57439         0.54849
C         14.68060        26.99822        -0.07457
C         15.76647        28.96994         0.95409
C         14.41166        29.58129         1.25333
C         15.71223        31.89294         1.31162
C         14.42119        31.11747         1.34632
C         15.76760        33.25597         0.71779
C         14.47983        33.92173         0.50364
C         15.69758        35.92628        -0.17836
C         14.43029        35.28116         0.12365
C         15.68677        37.48334        -0.06058
C         14.40918        38.09198         0.34980
C         15.76352        40.19426         0.83299
C         14.45170        39.52648         0.78041
C         15.77587        41.66405         0.66706
C         14.47208        42.39519         0.55182
C         15.70949        44.54983         0.55876
C         14.49398        43.86581         0.69142
C         15.69865        45.98430         0.47077
C         14.45852        46.70286         0.60432
C         15.68369        48.82780         0.29958
C         14.47976        48.11312         0.50144
C         15.70306        50.24809         0.18758
C         18.18313        10.47164        -1.17287
C         18.29329        11.90676        -1.68352
C         17.07365        12.80793        -1.59466
C         18.64075        14.90470        -1.87346
C         17.31467        14.29928        -1.83871
C         18.71021        16.43702        -2.21074
C         17.41407        17.19623        -1.93773
C         18.63420        19.38427        -1.54005
C         17.38443        18.54353        -1.70545
C         18.51476        20.58920        -0.62804
C         17.16324        21.13429        -0.23193
C         18.32820        23.29221         0.29210
C         17.14392        22.65113        -0.23036
C         18.29268        24.68136         0.62538
C         17.12285        25.42231         0.36260
C         18.21645        27.46542         1.37970
C         16.94528        26.75743         0.89973
C         18.21596        28.93302         1.33644
C         16.94944        29.63048         1.24363
C         18.25322        31.82288         1.14210
C         16.98137        31.11317         1.40968
C         18.30167        33.14713         0.73202
C         17.01766        33.86135         0.43632
C         18.04264        36.05991        -0.44037
C         16.97029        35.23436        -0.04260
C         18.08617        37.46512        -0.20466
C         16.93502        38.12426         0.27074
C         18.26619        40.17027         0.82093
C         16.94952        39.48131         0.73800
C         18.29351        41.66381         0.91640
C         16.99332        42.45104         1.13309
C         18.15925        44.47356         0.18377
C         16.98656        43.84065         0.53312
C         18.10513        45.91701        -0.14989
C         16.89567        46.68583         0.21988
C         18.16027        48.81702         0.04464
C         16.91861        48.09628         0.16462
C         18.14222        50.21871         0.07916
C         16.91003        50.95876         0.06685
C         18.16669        53.10347        -0.15654
C         16.96050        52.38844        -0.04504
C         18.21872        54.51570        -0.37701
C         20.70351         6.18434        -1.55707
C         20.71341         7.57648        -1.46513
C         19.48903         8.34281        -1.47624
C         20.72859        10.41578        -1.06834
C         19.48384         9.70383        -1.31391
C         20.77545        11.80204        -1.08692
C         19.62342        12.56899        -1.61855
C         21.11603        14.46515        -1.80608
C         19.73010        14.04831        -1.75876
C         21.21464        16.67466        -1.74441
C         19.90017        17.25176        -1.69039
C         21.08439        19.26503        -0.82262
C         19.83091        18.54008        -1.22395
C         20.91842        20.52396        -0.02382
C         19.61796        21.19290        -0.07175
C         20.64810        23.14742         1.08697
C         19.52183        22.54075         0.50661
C         20.68322        24.56264         1.33396
C         19.48555        25.32638         1.10675
C         20.67808        27.39926         1.64799
C         19.49344        26.72821         1.31990
C         20.59264        28.81668         2.01008
C         19.39563        29.59523         1.64057
C         20.75951        31.77245         1.78517
C         19.41543        31.06904         1.68702
C         20.80880        33.15830         1.27825
C         19.64875        33.78722         0.70090
C         21.10951        35.77078         0.33596
C         19.96912        34.97652         0.02510
C         21.20498        37.13968        -0.02855
C         19.30613        38.24165        -0.30152
C         20.76626        40.14877         0.41714
C         19.46595        39.48942         0.24892
C         20.75622        41.60255         0.42722
C         19.43806        42.29230         0.13702
C         20.64537        44.48521         0.12267
C         19.45545        43.80224         0.21948
C         20.69827        45.87411        -0.47792
C         19.38350        46.65409        -0.41192
C         20.63385        48.76634        -0.17814
C         19.41573        48.11141        -0.13789
C         20.71291        50.20133         0.14676
C         19.39667        50.96596         0.21686
C         20.64455        53.05944        -0.24173
C         19.42181        52.40285        -0.06838
C         20.68732        54.49189        -0.33098
C         19.43249        55.20289        -0.43918
C         20.65310        57.36064        -0.65443
C         19.49121        56.60153        -0.75548
C         20.59045        58.72146        -1.08446
C         23.16525         3.29099        -1.57194
C         21.91205         4.00696        -1.53262
C         23.20581         6.07624        -1.43587
C         21.88900         5.38713        -1.46604
C         23.23129         7.56360        -1.33657
C         21.95103         8.29450        -1.23512
C         23.22254        10.31421        -0.57420
C         21.94808         9.63858        -0.92872
C         23.23082        11.79548        -0.36610
C         21.90376        12.56786        -0.42145
C         23.30651        14.66210        -0.59911
C         22.12071        13.89953        -1.08557
C         23.33053        16.15686        -0.50855
C         22.26319        17.08353        -0.96103
C         23.28257        18.94046         0.28428
C         22.20227        18.39045        -0.36230
C         23.08832        20.11904         1.20092
C         21.93752        21.00336         0.75205
C         23.13171        23.07830         1.46970
C         21.81319        22.29102         1.53241
C         23.10687        24.43966         2.13364
C         21.87614        25.22864         1.71784
C         23.14067        27.32197         1.99415
C         21.91573        26.65682         1.81074
C         23.21312        28.79326         1.74446
C         21.96328        29.57737         2.13944
C         23.29089        31.61341         1.63200
C         21.98074        30.97728         1.80932
C         23.31876        33.10985         1.51418
C         22.03924        33.81572         1.35661
C         23.28757        35.97475         1.50095
C         22.14549        35.20996         1.12885
C         23.25980        37.34159         1.22373
C         22.12890        37.98793         0.59043
C         23.15497        40.17133         1.07705
C         21.96753        39.43226         0.62302
C         23.15400        41.68989         0.93453
C         21.91891        42.35417         0.47887
C         23.11092        44.52263         0.28107
C         21.92820        43.80116         0.26736
C         23.15956        46.02662         0.38798
C         21.91014        46.69075        -0.11891
C         23.14318        48.78850        -0.69618
C         21.89047        48.04092        -0.29381
C         23.23839        50.18863        -0.09560
C         21.93726        50.95214        -0.19041
C         23.07572        53.06171        -0.81817
C         21.88746        52.31392        -0.33499
C         23.12765        54.51431        -0.60407
C         21.91331        55.19587        -0.33833
C         23.23566        57.32465        -0.35505
C         21.89451        56.68123        -0.02511
C         23.37140        58.69356        -0.17112
C         21.53121        59.70157        -0.71921
C         23.15496        61.51441        -1.15257
C         21.87990        60.90622        -1.34168
C         24.36442         3.88894        -1.34330
C         25.68840         6.06693        -1.06151
C         24.39704         5.31951        -0.86932
C         25.72830         7.46667        -0.97938
C         24.49870         8.22015        -0.96255
C         25.74325        10.29258        -0.69363
C         24.51211         9.60053        -0.78136
C         25.75379        11.75825        -0.74739
C         24.51583        12.52159        -0.56380
C         25.82769        14.57399        -0.24027
C         24.58404        13.89986        -0.52816
C         25.74355        15.96422         0.24385
C         24.62933        16.83191        -0.23079
C         25.77260        18.85163         0.87118
C         24.57950        18.24656         0.24011
C         25.73770        20.21450         1.21537
C         24.42868        20.85975         1.61746
C         25.70029        23.05053         1.75579
C         24.43198        22.35859         1.38048
C         25.63847        24.50189         1.96091
C         24.43540        25.17313         2.02665
C         25.69577        27.38938         2.14136
C         24.40693        26.62307         2.44677
C         25.72758        28.75566         2.28898
C         24.43370        29.44902         2.35954
C         25.73476        31.67510         2.36726
C         24.45554        30.92674         2.27961
C         25.46683        33.07555         2.61421
C         24.46000        33.84069         2.09981
C         25.79440        36.06561         1.99827
C         24.43339        35.36412         2.31779
C         25.74097        37.35399         1.47783
C         24.49357        38.09168         1.32016
C         25.71333        40.21140         1.10934
C         24.44867        39.45459         1.12070
C         25.74474        41.70231         0.99474
C         24.44955        42.37180         0.64782
C         25.66945        44.63100         0.51757
C         24.41069        43.83586         0.32714
C         25.68420        46.04062         0.07359
C         24.44301        46.69114        -0.10204
C         25.65560        48.72675        -0.73857
C         24.44131        48.04488        -0.45486
C         25.57751        50.17836        -1.01167
C         24.42113        50.88034        -0.72264
C         25.64081        53.04532        -1.10576
C         24.36706        52.30685        -1.05772
C         25.59953        54.45096        -1.01971
C         24.37631        55.17325        -0.78640
C         25.64185        57.32072        -0.89506
C         24.40959        56.60388        -0.69720
C         25.65248        58.74144        -0.90658
C         24.48972        59.46236        -0.59853
C         24.33877        60.88746        -0.79731
C         26.95740         8.18672        -0.82888
C         28.21692        10.30299        -0.40590
C         26.97911         9.58158        -0.69080
C         28.27891        11.65491        -0.22860
C         27.09861        12.48709        -0.53150
C         28.24935        14.56592         0.29832
C         27.03516        13.88942        -0.09354
C         28.24759        15.94106         0.58334
C         26.98484        16.66741         0.73116
C         28.19814        18.80341         1.17928
C         26.98399        18.14031         0.87529
C         28.16898        20.18799         1.54256
C         26.94809        20.89504         1.55877
C         28.12478        23.01445         2.27873
C         26.87516        22.33161         1.85093
C         28.16020        24.52140         2.27562
C         26.89514        25.25587         2.02227
C         28.16178        27.40833         1.60195
C         26.91826        26.63579         1.99986
C         28.26552        28.81926         2.17776
C         26.98774        29.56381         2.41590
C         28.27348        31.80147         2.23800
C         26.98742        31.07064         2.37367
C         28.36126        33.22138         2.26511
C         27.31537        34.14354         2.64100
C         28.35850        36.19885         1.87928
C         27.10787        35.44319         2.15568
C         28.26761        37.65694         1.49415
C         26.95273        37.93834         0.77440
C         28.11042        40.19776         0.24050
C         26.86850        39.45057         0.55117
C         28.13353        41.67828         0.26725
C         26.97625        42.37497         0.49722
C         28.16525        44.55744         0.02343
C         26.97145        43.85036         0.47646
C         28.16179        45.93200        -0.08622
C         26.91693        46.69908        -0.17067
C         28.01176        48.65286        -1.48609
C         26.89501        48.02990        -0.68931
C         27.78341        50.04092        -2.03792
C         26.73501        50.89959        -1.47383
C         28.11996        53.05214        -1.28041
C         26.85226        52.30712        -1.32688
C         28.05885        54.44678        -1.18666
C         26.84276        55.18203        -1.12122
C         26.83847        56.58244        -1.09268
C         29.54709        12.33269         0.27054
C         30.68963        14.56192         0.33263
C         29.51657        13.85473         0.27044
C         30.72075        16.01160         0.42651
C         29.45385        16.70143         0.69028
C         30.75597        18.75429         1.20371
C         29.42396        18.06092         1.02442
C         30.62462        20.29550         1.17830
C         29.47453        20.75821         2.09013
C         30.73913        23.05191         2.26306
C         29.43072        22.27969         2.30680
C         30.75279        24.49102         1.96376
C         29.49124        25.24400         2.10453
C         30.65869        27.36221         1.59417
C         29.46498        26.67003         1.75378
C         30.65054        28.83914         1.52682
C         29.49679        29.57722         1.82560
C         30.68784        31.66525         1.47826
C         29.48983        31.02429         1.86583
C         30.80095        33.13602         1.50757
C         29.63116        33.93076         1.94912
C         30.67448        36.03219         0.80805
C         29.62836        35.42354         1.67474
C         30.59785        37.34282         0.39442
C         29.44613        38.16479         0.67333
C         30.54500        40.15014        -0.31015
C         29.38740        39.46065         0.20868
C         30.47350        41.58421        -0.50814
C         29.34529        42.31455        -0.20070
C         30.66057        44.42801        -0.45683
C         29.30461        43.77462        -0.57625
C         30.73569        45.86675        -0.16431
C         29.46245        46.60779         0.14258
C         30.65792        48.82326        -1.30479
C         29.42607        48.17008        -1.71314
C         30.66101        50.23562        -0.97943
C         29.71856        51.13107        -1.49216
C         29.40636        52.43355        -1.07847
C         31.86212        16.74366         0.21833
C         33.05990        18.97064         0.33966
C         31.76476        18.25109         0.15421
C         33.13102        20.26423         0.89353
C         31.97350        20.91497         1.46116
C         33.30558        23.07321         1.74685
C         32.05179        22.26942         1.97995
C         33.21541        24.50779         1.42119
C         31.93170        25.20533         1.61120
C         33.19360        27.37914         1.43515
C         31.88520        26.62445         1.50501
C         33.05754        28.79635         0.92551
C         31.86743        29.51295         1.17242
C         33.06176        31.61467         0.70443
C         31.86854        30.94471         1.08507
C         33.20634        33.10323         0.91822
C         31.90568        33.81781         0.85164
C         33.05503        35.96715         0.10513
C         31.75770        35.16279         0.19546
C         33.00808        37.27962        -0.24975
C         31.66068        37.91327        -0.54005
C         32.87760        40.12055        -1.05454
C         31.70228        39.43328        -0.58934
C         32.89034        41.49029        -1.24491
C         31.59781        42.26665        -1.24802
C         32.97322        44.39963        -1.30855
C         31.75469        43.72668        -0.88676
C         32.96312        45.78491        -1.42905
C         31.93380        46.61713        -0.79263
C         31.83067        48.07334        -1.10177
C         34.39139        20.91133         0.88967
C         35.64107        23.07986         0.70670
C         34.54274        22.30586         1.26880
C         35.59357        24.45103         0.60753
C         34.32550        25.16761         0.86956
C         35.06812        27.28692        -0.18152
C         34.21654        26.59474         0.65051
C         35.29389        28.70763        -0.12561
C         34.17801        29.46018         0.37342
C         35.38068        31.50619        -0.25821
C         34.19481        30.88633         0.26091
C         35.36851        32.96308        -0.49910
C         34.20879        33.74738        -0.00564
C         35.60467        35.89531        -0.30365
C         34.33868        35.23048         0.16371
C         35.56055        37.35477        -0.62646
C         34.23312        38.06367        -0.55322
C         35.34666        40.04507        -1.66140
C         34.06153        39.27412        -1.45374
C         35.30199        41.42432        -1.82015
C         34.10158        42.19413        -1.62066
C         34.09491        43.58772        -1.71541
C         36.86728        25.11532         0.33421
C         37.99003        27.22797        -0.54859
C         36.95717        26.25987        -0.42013
C         37.74636        28.59278        -0.81907
C         36.49441        29.31808        -0.56736
C         37.68843        31.46608        -1.12766
C         36.51682        30.76314        -0.63355
C         37.72597        32.87623        -1.26998
C         36.60576        33.67350        -0.88612
C         37.78912        35.72904        -1.53108
C         36.66791        35.06393        -0.92258
C         37.75152        37.12698        -1.78242
C         36.64064        37.93468        -1.46729
C         36.54500        39.29051        -1.82557
C         38.88998        29.34202        -1.21636
C         40.03808        31.39924        -1.93362
C         38.86925        30.71824        -1.43615
C         40.04984        32.75171        -2.10965
C         38.89839        33.54510        -1.76869
C         38.89437        34.93390        -1.93396
O         25.92594        41.06140         2.29093
O         27.81528        29.02898         3.53182
O         27.14546        39.77354        -0.85082
O         30.67151        33.63080         2.96053
O         23.61840        32.24566         0.34196
O         24.53132        42.81810        -0.74826
O         31.58337        22.55582         3.34696
O         31.84844        46.31022         0.65813
O         22.94423        15.35206         0.66690
O         17.27790        26.87874         2.32761
O         34.19245        33.32247        -1.38521
O         14.33087        38.39384         1.75678
O         22.30313        59.37568         0.42653
O         18.91996        16.51087        -3.69808
O         15.25654        41.99510        -0.65923
O         24.96165        17.86517        -1.19736
O         21.40623        15.58344        -2.58758
O         23.42482         6.85627        -2.64270
O         21.63323        19.78034        -2.24199
O         19.16559        35.45458        -1.00057
O         19.87949        31.62273         2.96293
O         27.43219        48.90648        -2.85380
O         15.65427        36.81228        -1.33743
O         24.12646        30.24469         3.54120
O         28.92960        50.64368        -2.55873
O         21.22161        29.13352         3.28888
O         28.68384        22.51784         3.54520
O         20.36712        37.66120        -1.01860
O         26.01796        16.05848         1.67511
O         18.52038        46.27037        -1.54082
O         20.13844        50.57489         1.44141
O         28.84604        25.03604         3.45168
O         29.46868        47.71714         0.68344
O         13.58454        31.58007         2.47703
O         14.83976        20.58601         0.02009
O         29.36308        36.10409         2.95604
O         24.62300        20.67845         3.01182
O         15.75468        25.54299        -1.73346
O         26.33826        33.68378         3.51988
O         35.35760        35.62619         1.12131
O         23.79991        22.94395         0.18115
O         10.72955        36.90267        -1.37283
O         34.33050        22.67961         2.70066
O         35.78609        26.58137        -1.14536
O         18.61939        40.87239         2.08747
O         10.31596        29.87041        -1.44871
O         23.44472        52.63392        -2.18723
O         23.23230        10.90353         0.80513
O          8.51582        35.74590        -0.93570
O         26.56444        12.26568        -1.87305
O         26.40297        44.39051         1.74042
O         35.20101        38.21275         0.51186
O         16.37465        31.70972         2.61530
O         22.99970        41.07356         2.23964
O         19.06075        12.01020        -2.90782
O         16.07136        12.31219        -2.50337
H         16.43447        12.38901        -3.41120
O         31.16309        42.27124        -2.67399
H         30.98982        41.33817        -2.92607
O         24.19008         5.26959         0.59266
H         23.51856         4.57669         0.77016
O         33.65997        27.51644         2.81924
H         33.68344        26.61826         3.21414
O         10.55632        33.42375         2.36796
H         11.36596        33.05975         2.78850
O         23.03823        48.93358        -2.13670
H         22.30723        49.55518        -2.33726
O         33.74174        33.27890         2.27563
H         32.99097        33.22834         2.90836
O         28.98344        43.83388        -2.01835
H         29.66970        43.28090        -2.48275
O         29.66263        20.16866         3.39490
H         29.17295        20.73804         4.03613
O         22.89616        20.40643        -2.01527
H         23.55168        19.68117        -2.17891
O         16.82943        42.64505         2.56051
H         17.38189        41.95911         3.00759
O         21.55913        21.95988         2.93267
H         21.83660        21.00835         3.05708
O         22.57606        19.52429         2.43582
H         23.34413        19.62696         3.08643
O         33.69870        38.69837        -2.76882
H         33.77264        39.41364        -3.43671
O         17.12749         9.78668        -1.83870
H         16.44676        10.45108        -2.09917
O         23.49567        49.99605         1.32946
H         23.26085        50.82037         1.80541
O         31.32164        34.87159        -1.17594
H         31.23024        35.74129        -1.65048
O         23.36726        28.96841         0.29705
H         22.80285        28.31195        -0.16299
O         20.94194        45.57614        -1.89622
H         20.05747        45.61279        -2.33721
O         17.06185        20.75972         1.17724
H         16.10092        20.76547         1.40019
O         18.93497        19.95672        -2.87163
H         19.89477        20.19553        -2.88939
O         31.30495        37.50358        -1.91076
H         32.05711        37.80011        -2.48684
O         30.24015        20.76491        -0.14495
H         30.70080        20.19121        -0.81338
O          6.65293        33.97831        -1.44013
H          7.34130        34.59452        -1.78509
O         22.91960        24.20987         3.56972
H         22.35608        23.39483         3.67175
O         31.32095        18.34919         2.46470
H         30.79299        18.78174         3.17979
O         14.09455        29.05881         2.57136
H         13.73800        29.81135         3.10120
O         21.45287        12.79134         0.93911
H         21.87380        12.09394         1.49478
O         19.09813        42.00930        -1.25911
H         19.75122        42.46507        -1.83162
O         24.12848        35.61550         3.70794
H         24.82738        35.18174         4.24541
O         13.74619        28.27343        -1.82849
H         12.90978        28.62788        -2.20083
O         21.71725        56.79181         1.41835
H         21.73407        57.75443         1.62457
O         17.88953        15.72076        -4.33725
H         18.38879        14.92801        -4.65223
O         24.31968        26.61859         3.90899
H         23.74653        25.85732         4.17088
O         27.98994        27.65478         0.15785
H         27.89621        26.79042        -0.29528
O         28.23837        38.43236         2.71176
H         28.85947        38.00156         3.34306
O         30.68069        11.84530        -0.45452
H         30.54592        12.04342        -1.40374
O         13.23359        37.78144        -1.68919
H         12.38302        37.46948        -2.08237
O          9.30557        30.53571         2.01881
H          9.27836        31.33588         2.58793
O         27.00180        37.26637        -0.50292
H         27.09277        37.96930        -1.19303
O         29.54306        47.08883        -2.44513
H         28.67406        46.72125        -2.71776
O         15.27440        23.01885        -2.77659
H         15.43432        23.98814        -2.88414
O         16.26681        19.97216        -3.21799
H         17.22813        20.08635        -3.41521
O         31.28591        18.57017        -1.20874
H         30.53711        17.96521        -1.40197
O         23.15390        46.28666         1.83788
H         23.22438        47.25696         1.97409
H          4.87182        31.06566         0.69653
H          4.75051        33.51443         0.66385
H          7.54389        26.96557        -0.67755
H          6.16693        29.00891        -0.04809
H          6.18245        35.48653         1.47395
H          7.33259        38.12014         1.14101
H         10.21191        22.95772        -1.77644
H          8.87741        24.96879        -1.22115
H          8.54701        40.09177         1.00554
H          9.79456        42.22130         1.02159
H         12.71989        18.73130        -2.41139
H         11.50945        20.97948        -2.41432
H         11.07368        44.37510         0.96879
H         12.30067        46.51692         0.86501
H         15.20502        14.51485        -2.01421
H         14.00085        16.54816        -2.18776
H         13.53408        48.67057         0.57803
H         14.75159        50.79943         0.22537
H         17.94630        10.53127        -0.05853
H         16.64224        12.69195        -0.56248
H         16.01039        52.94236        -0.08096
H         17.27720        55.07172        -0.49783
H         19.73865         5.66827        -1.67802
H         18.53476         7.81306        -1.60899
H         18.56060        57.09683        -1.07443
H         19.76816        59.00151        -1.76220
H         23.13153         2.21933        -1.81838
H         20.97466         3.44146        -1.63333
H         23.24343        62.56114        -1.48686
H         21.18860        61.36348        -2.06474
H         25.29829         3.30901        -1.38089
H         26.63144         5.49866        -1.06796
H         26.57257        59.26992        -1.19538
H         25.26373        61.48059        -0.87056
H         27.90211         7.62363        -0.79810
H         29.12429         9.70220        -0.23895
H         29.00321        55.00989        -1.14716
H         27.78955        57.12613        -1.19243
H         29.70226        12.01266         1.33992
H         31.64640        14.02094         0.27985
H         31.45449        50.60476        -0.31598
H         30.15015        52.99819        -0.49625
H         32.80793        16.24724        -0.04580
H         33.98770        18.49939        -0.02003
H         33.77897        46.28889        -1.96827
H         32.71506        48.65812        -0.80014
H         35.23145        20.42446         0.37184
H         36.54520        22.54212         0.38477
H         36.23617        41.96704        -2.03103
H         35.01929        44.10176        -2.01934
H         37.76762        24.69269         0.80368
H         39.03824        26.90859        -0.44027
H         38.59565        37.58041        -2.32399
H         37.42666        39.79122        -2.25489
H         39.82711        28.79403        -1.39807
H         40.92672        30.79804        -2.17504
H         40.94645        33.25804        -2.49529
H         39.77526        35.42672        -2.37190
