         268
 CSIRO Nanostructure Databank - Neutral Graphene Oxide Data Set
C        -11.25535         0.64602        -0.21339
C        -10.06560         1.38557         0.28466
C         -8.74809         0.67538         0.17106
C         -7.45094         1.44395         0.45640
C         -6.23349         0.90821        -0.29390
C         -4.92250         1.60567        -0.01954
C         -3.73413         0.75407         0.31042
C         -2.48768         1.49355         0.76177
C         -1.10715         1.06331         0.22773
C          0.03632         1.52157         1.15423
C          1.37986         0.80038         1.10525
C          2.65795         1.52047         1.44368
C          4.00227         0.81618         1.30028
C          5.21920         1.54541         0.80734
C          6.31943         0.73514         0.16598
C          7.35189         1.36639        -0.45320
C          8.50145         0.64274        -1.07533
C          9.90003         1.37632        -1.18322
C         10.88135         0.63106        -0.30280
C        -10.17336         2.90471         0.52060
C         -8.88141         3.68543         0.29644
C         -7.60025         2.93041         0.14884
C         -6.32664         3.71048         0.21738
C         -4.98416         3.03806         0.38480
C         -3.87383         3.70277         1.14947
C         -2.57510         2.92148         1.22305
C         -1.31643         3.72745         1.50770
C          0.00318         2.95844         1.60858
C          1.30653         3.75171         1.77223
C          2.65220         3.03060         1.56994
C          3.87168         3.77950         1.04373
C          4.92973         2.96075         0.26755
C          5.98661         3.49186        -0.70138
C          7.32800         2.84976        -0.34720
C          8.72269         3.58737        -1.46644
C          9.75648         2.82027        -0.83212
C         -8.88759         5.02724         0.10035
C         -7.63143         5.84095        -0.22550
C         -6.44520         5.16985         0.47663
C         -5.21934         5.92525         0.87216
C         -3.92242         5.20982         1.21828
C         -2.62971         5.99340         1.09036
C         -1.36443         5.22461         1.46729
C         -0.07010         5.98558         1.47800
C          1.25165         5.25851         1.58633
C          2.48746         6.03720         1.14193
C          3.78912         5.30277         0.94132
C          4.82340         6.07760         0.21987
C          6.14982         4.75596        -1.55564
C          7.33602         5.60655        -1.17211
C          8.55153         5.02668        -1.09578
C         -7.70341         7.30937         0.10146
C         -6.46854         8.10274         0.44544
C         -5.21320         7.27083         0.22000
C         -3.94401         7.82551        -0.30438
C         -2.64892         7.23408         0.22171
C         -1.44481         7.89337        -0.45946
C         -0.19126         7.49476         1.53395
C          1.58529         8.55804         0.83579
C          2.26563         7.30248         0.31389
C          3.24437         7.66696        -0.78767
C          4.55841         6.98540        -0.75532
C          5.84934         7.70051        -1.12382
C          6.89587         6.81272        -0.37405
C         -6.35177         9.45673        -0.21744
C         -5.20908         9.98384        -0.67585
C         -3.88784         9.26455        -0.83375
C         -2.68578        10.01691        -0.31235
C         -1.43610         9.39083        -0.29444
C         -0.22570        10.11187        -0.25911
C          1.08943         9.49673        -0.26146
C          2.03449         9.84702        -1.17696
C          3.33433         9.09455        -1.35571
C          4.55892         9.78219        -0.76743
C          5.73221         9.14013        -0.66604
C        -11.21682        -0.70356        -0.33523
C         -9.97577        -1.46620        -0.29048
C         -8.69804        -0.68886        -0.50802
C         -7.37681        -1.42248        -0.20006
C         -6.21392        -0.53347        -0.65870
C         -4.89961        -1.19367        -0.98554
C         -3.68056        -0.61314        -0.29389
C         -2.33017        -1.17982        -0.62969
C         -1.07688        -0.42140        -0.25759
C          0.25038        -1.16562        -0.19931
C          1.48355        -0.50003         0.35960
C          2.77395        -1.29124         0.55705
C          3.92015        -0.71701         1.40555
C          5.23659        -1.42536         1.04676
C          6.38432        -0.74789         0.38103
C          7.18415        -1.56599        -0.64979
C          8.49775        -0.85429        -1.07146
C          9.88262        -1.53779        -1.05350
C         10.86626        -0.70544        -0.24330
C         -9.92601        -2.82486        -0.41248
C         -8.66328        -3.51045        -0.64516
C         -7.52206        -2.62925        -1.12222
C         -6.23195        -3.38972        -1.50254
C         -4.91053        -2.62313        -1.44995
C         -3.58538        -3.37903        -1.33152
C         -2.30617        -2.65870        -0.96927
C         -1.04243        -3.42440        -0.63485
C          0.23095        -2.68775        -0.31141
C          1.37412        -3.44095         0.34024
C          2.71892        -2.76994         0.36592
C          3.86383        -3.61453         0.84028
C          5.17109        -2.92925         1.00941
C          6.45351        -3.66586         0.73403
C          7.39360        -3.12133        -0.35579
C          8.79339        -3.66156        -0.17032
C          9.87912        -2.96373        -0.55089
C         -8.56659        -4.85698        -0.52657
C         -7.25834        -5.58462        -0.58946
C         -6.20539        -4.90019        -1.46232
C         -4.88538        -5.65773        -1.50784
C         -3.61652        -4.89148        -1.27810
C         -2.50292        -5.60157        -0.56915
C         -1.22479        -4.85657        -0.19654
C         -0.02387        -5.62341         0.27034
C          1.30000        -4.93266         0.47863
C          2.54534        -5.74172         0.22879
C          3.85309        -5.03236         0.36824
C          5.12140        -5.83330         0.46762
C          6.42930        -5.15589         0.74997
C          7.62766        -5.93124         0.32402
C          8.92858        -5.13764         0.23474
C         -7.41291        -7.06349        -0.77486
C         -6.24197        -7.88028        -1.04789
C         -4.93045        -7.17776        -1.36626
C         -3.64195        -7.92046        -1.08945
C         -2.49799        -7.10459        -0.57068
C         -1.10367        -7.66412        -0.66472
C         -0.03759        -7.14721         0.29113
C          1.20019        -7.94813         0.55868
C          2.50277        -7.27796         0.09381
C          3.75921        -8.00654         0.53459
C          5.06334        -7.32592         0.48689
C          6.34064        -8.04542         0.88276
C          7.57351        -7.28535         0.38067
C         -6.17466        -9.26419        -0.52543
C         -5.02243        -9.93359        -0.33030
C         -3.67426        -9.35455        -0.57411
C         -2.58159        -9.93620         0.28012
C         -1.26122        -9.93204         0.10542
C          0.02261       -10.23085        -0.02532
C          1.22080        -9.51114         0.61296
C          2.54859       -10.09345         0.18542
C          3.75190        -9.41593         0.36447
C          5.04968       -10.10055         0.24865
C          6.23842        -9.48904         0.43152
O          3.22429        -5.15278        -0.93837
O         -1.53853         4.50598         2.72474
O          6.43474        -1.03488         1.81079
O          1.90909         0.79144         2.45507
O         -0.01753        -3.21689        -1.64792
O         -2.63913         7.32899         1.68418
O         -8.01219        -1.96202        -2.36058
O          8.23637        -0.08913        -2.29420
O          5.25226        -6.60276        -0.77792
O          6.12685         6.07343         0.66113
O         -8.61603        -0.64518        -1.97946
O          0.35078        -7.50579         1.66006
O          1.36615         4.64354         2.90460
O         -6.50718         0.50876        -1.64264
O          2.01509         6.96418        -1.09137
O          3.73343         3.43333         2.44383
O         -6.51879        -4.21391        -2.68143
O          4.85742         2.72051        -1.17847
O         -0.72617        -8.08970        -1.74562
O         -4.77770        -1.51538        -2.38620
O         -0.23344         1.85463         2.52990
O         -5.69827        -7.74781        -2.44394
O          3.14974        -1.90016        -0.71133
O         -2.92467        -6.37730         0.60860
O         -4.14773         4.38233         2.39520
O         -3.97716        -5.37274        -2.60805
O         -4.50111         2.64268        -0.95455
O         -2.66123        -2.91704        -2.35529
O          1.21846        -4.06735         1.65303
O          6.83888        -4.38897         1.95100
O         -0.12688         6.96064         2.66871
O         -6.27559         5.65591         1.84441
O          7.01132        -3.80749        -1.53234
O          5.02342         1.32875         2.22019
O          4.41094        -3.44048         2.16202
O          1.86417         9.00635         1.94332
O          5.43173         4.95523        -2.51133
O         -9.50277         0.63010         1.42737
O         -3.33325        -9.02701        -1.95294
O          1.17840        -0.43130        -1.05898
O         -4.78755         7.01013        -1.17954
O          3.49987         6.03997         2.17551
O         -0.97912        -5.05765         1.22068
O         -0.71181         7.28126        -1.21748
O         -3.96465        -0.43521         1.13104
O         -2.64357         1.79931         2.16420
O         -1.59709        -0.42673        -1.63188
O         -6.90730         3.33296        -1.06443
O          1.16431        -9.86042         2.02349
H          0.56232        -9.21271         2.45945
O          6.30046        -1.50022        -1.77281
H          6.35729        -2.40736        -2.20047
O         -6.63197        -5.44880         0.75906
H         -7.30170        -5.70228         1.43041
O         -0.88941         1.88774        -0.94480
H         -1.15376         1.36624        -1.74241
O          3.55064         8.96034        -2.77465
H          2.84516         8.37995        -3.12997
O         10.38058        -1.53366        -2.42025
H          9.74015        -2.04024        -2.96502
O          7.63601         3.30249         0.93787
H          8.21051         2.66415         1.40837
O         -6.54042         8.38607         1.87995
H         -6.63666         7.51974         2.34264
O          9.51794        -5.18393         1.54781
H          8.83178        -4.85604         2.17480
O          6.13833         7.68444        -2.52292
H          5.77974         6.85216        -2.91021
O         -7.12652         1.28270         1.85423
H         -7.98255         1.22431         2.34600
O        -11.20353         3.44013        -0.31066
H        -10.85260         3.55331        -1.21816
O         -3.67962         9.18732        -2.27674
H         -2.90165         8.61655        -2.45247
O         10.30169         1.28373        -2.56328
H         10.33762         0.31384        -2.78464
O         -7.20142        -1.79699         1.15927
H         -7.13303        -0.98570         1.71135
O          2.44152        -7.53904        -1.33832
H          3.15042        -6.99202        -1.75688
O          3.61215        -1.03513         2.76466
H          4.30000        -0.62662         3.33255
O          6.39010        -8.04073         2.33528
H          7.24202        -8.43430         2.61645
O          8.34761         3.25362        -2.73852
H          8.82192         2.42693        -3.00921
O         -7.45528         5.81282        -1.66835
H         -6.58861         6.22651        -1.88423
H         11.60505        -1.23958         0.37323
H         11.62870         1.20877         0.26251
H         10.09978         3.15644         0.15935
H          9.40498         5.55953        -0.64736
H          7.73731         7.34951         0.11707
H          6.62032         9.65248        -0.26399
H          4.46933        10.83238        -0.45262
H          1.78274        10.57496        -1.96474
H         -0.28150        11.20511        -0.39354
H         -2.73472        11.11552        -0.26109
H         -5.22695        11.00475        -1.08898
H         -7.26123        10.07707        -0.20716
H         -8.62158         7.85578        -0.16515
H         -9.84909         5.56369         0.13586
H        -10.50959         3.05201         1.58152
H        -12.19186         1.20423        -0.35129
H        -12.13889        -1.25583        -0.57179
H        -10.84292        -3.42762        -0.32942
H         -9.45491        -5.43535        -0.22693
H         -8.24777        -7.54006        -0.23509
H         -7.12998        -9.74632        -0.26735
H         -5.06021       -10.94827         0.09527
H         -2.95369       -10.44181         1.19309
H          0.26644       -11.16394        -0.56801
H          2.57322       -11.17044        -0.04405
H          5.02212       -11.16855        -0.01746
H          7.16911       -10.06946         0.33123
H          8.48144        -7.87694         0.17839
H          9.64234        -5.64517        -0.46227
H         10.86793        -3.45014        -0.52589
