         631
 CSIRO Nanostructure Databank - Neutral Graphene Oxide Data Set
C         23.11322        69.96040        -1.06511
C         23.03327        71.17250        -0.12142
C         21.80522        72.00436        -0.35508
C         23.04971        74.08562        -0.14217
C         21.83938        73.37401        -0.31331
C         25.57517        65.63721        -1.13025
C         25.57559        67.02072        -0.93680
C         24.37723        67.79862        -1.04508
C         25.57798        69.85197        -0.43219
C         24.36992        69.15531        -0.81189
C         25.53838        71.28752        -0.20770
C         24.31646        71.97289        -0.17192
C         25.51682        74.11107         0.00447
C         24.29251        73.40228        -0.08717
C         28.04328        61.29767        -0.99995
C         27.98742        62.69919        -0.82074
C         26.78261        63.46531        -1.06628
C         28.09624        65.56469        -0.93051
C         26.76120        64.85302        -1.02635
C         27.99643        67.03908        -0.58391
C         26.81203        67.72750        -0.61257
C         28.02421        69.87057        -0.05903
C         26.79097        69.16158        -0.34985
C         28.00478        71.30963         0.03629
C         26.76796        72.00485        -0.04594
C         27.98550        74.13719         0.19581
C         26.74504        73.43405         0.04899
C         30.53768        57.00914        -0.79182
C         30.42888        58.43292        -0.57481
C         29.29084        59.15283        -0.89484
C         30.39023        61.27625        -0.26329
C         29.21653        60.57675        -0.71482
C         30.33406        62.69439        -0.02708
C         29.13918        63.36703        -0.31695
C         30.23659        65.52606         0.44407
C         28.96826        64.80135         0.07525
C         30.05438        66.84065         0.70124
C         29.29724        67.71905        -0.27241
C         30.47567        69.91289         0.22762
C         29.24148        69.18790         0.07798
C         30.47071        71.34166         0.20071
C         29.22293        72.03638         0.17616
C         30.45736        74.25351         0.52148
C         29.18922        73.47001         0.25697
C         32.65306        52.50341        -0.43060
C         32.33579        53.87736        -0.05647
C         31.62493        54.84253        -0.71096
C         32.63806        56.92786         0.57980
C         31.58572        56.25299        -0.32682
C         32.72395        58.41997         0.32404
C         31.60996        59.12433        -0.08277
C         32.79015        61.28944         0.24189
C         31.58468        60.56781        -0.01908
C         32.73818        62.72664         0.31811
C         31.54068        63.40362         0.36421
C         32.82051        65.62824         0.53923
C         31.51379        64.83761         0.88525
C         32.92341        67.06754         0.38251
C         31.90455        67.92059         0.73407
C         32.96516        69.93821        -0.01139
C         31.75038        69.26077         0.27420
C         32.94928        71.36071         0.01593
C         31.71492        72.05771         0.18127
C         32.94194        74.16250         0.23888
C         31.73639        73.48514         0.27589
C         35.26832        48.39777         0.07519
C         35.24663        49.74334        -0.19266
C         33.97453        50.44245        -0.61992
C         35.16512        52.62629         0.06313
C         33.87271        51.91959        -0.24322
C         35.27989        54.08992         0.44902
C         34.10111        54.93197         0.72768
C         35.24345        57.05303         0.38519
C         34.01441        56.27267         0.51858
C         35.22495        58.42230         0.46566
C         33.94886        59.14372         0.82567
C         35.23218        61.33641         0.66338
C         33.99569        60.61172         0.47991
C         35.21885        62.72774         0.72582
C         34.03867        63.45341         0.16812
C         35.28014        65.60090         0.34167
C         34.00518        64.92111         0.46136
C         35.31886        66.83924        -0.53174
C         34.00171        67.70037        -0.51794
C         35.37829        69.89528        -0.34594
C         34.17038        69.19524        -0.21993
C         35.40361        71.31481        -0.14447
C         34.19553        72.04578        -0.01742
C         35.41121        74.16380         0.20644
C         34.19173        73.47972         0.12426
C         37.72858        44.13834         0.45684
C         37.82804        45.61512         0.83358
C         36.54063        46.34877         0.57330
C         37.76297        48.39330        -0.00899
C         36.51630        47.68421         0.25289
C         37.71472        49.81496        -0.27444
C         36.48237        50.47371        -0.29321
C         37.72039        52.69486        -0.55107
C         36.40640        51.93580        -0.49037
C         37.74244        54.18726        -0.32785
C         36.48340        54.89244         0.04748
C         37.72390        57.01581         0.45801
C         36.50965        56.34669         0.36154
C         37.75997        58.44287         0.50805
C         36.48474        59.18854         0.18008
C         37.69546        61.28225         0.70703
C         36.48693        60.60310         0.68926
C         37.67831        62.76115         0.68468
C         36.44213        63.50674         1.14937
C         37.72618        65.65659         0.56679
C         36.46440        64.94744         0.62803
C         37.82106        66.97883         0.14042
C         36.62500        67.65237        -0.44074
C         38.00721        69.91556        -0.51244
C         36.65640        69.15967        -0.58177
C         37.87417        71.36267        -0.08734
C         36.66687        72.02833        -0.03269
C         37.84265        74.19718         0.35035
C         36.64418        73.47749         0.17470
C         40.35513        39.86520         0.66579
C         40.33013        41.24994         0.45228
C         38.99712        41.94218         0.38888
C         40.25163        44.13497         0.26236
C         39.07011        43.44459         0.40999
C         40.23688        45.58739         0.09618
C         39.03762        46.29634         0.22911
C         40.17633        48.38352        -0.63849
C         38.97231        47.68912        -0.04952
C         40.26162        49.83209        -0.14445
C         38.95374        50.56859        -0.32512
C         40.21515        52.66419         0.07968
C         38.96525        51.93918        -0.35495
C         40.20294        54.16992        -0.04636
C         39.02508        54.86160        -0.02117
C         40.27023        56.96046         0.69756
C         38.96078        56.17907         0.73129
C         40.25253        58.46848         0.72240
C         38.95407        59.17163         0.61627
C         40.20652        61.32338         0.59722
C         38.95880        60.59968         0.61128
C         40.23801        62.74348         0.67526
C         38.96413        63.49299         0.64732
C         40.23837        65.60248         0.84980
C         38.93577        64.92200         1.13033
C         40.17188        67.06061         1.00908
C         39.00293        67.77895         0.44555
C         40.31969        69.86921         0.58187
C         39.09002        69.15101         0.25473
C         40.38598        71.34851         0.38343
C         39.13218        72.11197         0.05597
C         40.30278        74.25025         0.54962
C         39.09441        73.56021         0.36441
C         42.94241        35.73099         1.64929
C         42.88834        37.03219         1.16909
C         41.54391        37.64633         0.83074
C         42.76434        39.85163         0.45576
C         41.55996        39.15107         0.66550
C         42.75880        41.25053         0.30527
C         41.53636        41.96660         0.28734
C         42.69435        44.12381        -0.10523
C         41.52163        43.42634         0.13969
C         42.73204        45.56287        -0.15753
C         41.47933        46.29109        -0.16774
C         42.71530        48.41743        -0.42373
C         41.48272        47.66128        -0.41443
C         42.71216        49.80331        -0.53818
C         41.43925        50.57306        -0.82589
C         42.67437        52.72054        -0.33262
C         41.49062        52.00612        -0.35258
C         42.65683        54.16652        -0.22801
C         41.47916        54.87217        -0.00298
C         42.66741        57.04943         0.09964
C         41.49808        56.30271         0.20744
C         42.69740        58.48408         0.26192
C         41.49071        59.20241         0.40704
C         42.67046        61.36776         0.38148
C         41.45308        60.63160         0.44058
C         42.67992        62.74736         0.59225
C         41.45009        63.45461         0.71862
C         42.68937        65.66792         0.74368
C         41.43440        64.92415         0.79426
C         42.72819        67.02218         0.98884
C         41.47133        67.77690         1.22062
C         42.71741        69.92923         1.46435
C         41.46576        69.22911         0.98607
C         42.78588        71.38922         1.08039
C         41.46749        72.11478         1.13588
C         42.76235        74.21769         0.66868
C         41.53476        73.56780         0.72003
C         45.47716        33.09862         2.48447
C         44.24963        33.73326         2.31879
C         45.40010        35.75162         1.52302
C         44.18809        35.06653         1.83723
C         45.35320        37.08674         1.02697
C         44.09451        37.71230         0.85149
C         45.32015        39.81245         0.08235
C         44.02259        39.07220         0.29738
C         45.30967        41.28050         0.04951
C         44.04240        42.04976         0.36080
C         45.21176        44.14703        -0.28185
C         43.94453        43.35020        -0.45063
C         45.21530        45.52027        -0.19439
C         43.95397        46.26405        -0.17075
C         45.17770        48.41883        -0.06828
C         43.97185        47.70390        -0.18431
C         45.20538        49.84622        -0.20350
C         43.90099        50.57046        -0.03832
C         45.15332        52.73894        -0.39169
C         43.94077        52.03494        -0.39328
C         45.18932        54.17544        -0.43411
C         43.90565        54.88516        -0.51254
C         45.19899        57.06065        -0.11419
C         43.90567        56.39856        -0.36065
C         45.17242        58.50036         0.05659
C         43.95051        59.17774         0.14391
C         45.20081        61.38022         0.16293
C         43.90593        60.66238        -0.12318
C         45.21171        62.76536         0.33323
C         43.97334        63.49976         0.80900
C         45.21202        65.65450         0.47211
C         43.90936        64.92204         0.24643
C         45.22572        67.04909         0.71043
C         43.97702        67.78421         0.94233
C         45.22850        69.91051         1.26181
C         43.97131        69.14998         1.13373
C         45.24268        71.36532         1.03004
C         43.98105        72.06821         0.96167
C         45.22523        74.18645         0.73991
C         44.00193        73.51884         0.78922
C         46.67189        33.76158         2.18868
C         47.86590        35.79111         1.43242
C         46.65962        35.09107         1.71056
C         47.85529        37.12269         0.99682
C         46.59254        37.79349         0.77137
C         47.80793        39.88543         0.26473
C         46.59395        39.13719         0.38024
C         47.77921        41.26648        -0.02912
C         46.50139        41.94667        -0.11661
C         47.77266        44.15524        -0.40266
C         46.46876        43.39524        -0.42394
C         47.69248        45.59390        -0.11981
C         46.47911        46.22984        -0.05830
C         47.65137        48.39242        -0.32986
C         46.45073        47.69137         0.31764
C         47.67933        49.89383         0.00767
C         46.38461        50.58697        -0.31615
C         47.61671        52.75314        -0.43549
C         46.40550        52.02124        -0.36769
C         47.65211        54.17779        -0.41323
C         46.39026        54.89946        -0.37023
C         47.68792        57.03054         0.12498
C         46.37755        56.33812        -0.19086
C         47.64926        58.53209        -0.08518
C         46.42772        59.22679        -0.01077
C         47.65418        61.37374        -0.05640
C         46.42223        60.66257         0.01059
C         47.64718        62.80166        -0.01405
C         46.42533        63.49482         0.20997
C         47.65682        65.64569         0.18976
C         46.42044        64.93986         0.30554
C         47.66721        67.06065         0.36126
C         46.46496        67.72851         0.70690
C         47.73046        69.92224         0.70582
C         46.53007        69.15350         1.05473
C         47.70663        71.33370         0.79200
C         46.45563        72.04590         0.90541
C         47.69045        74.18024         0.71720
C         46.46905        73.49402         0.79184
C         49.06646        37.84530         0.79644
C         50.28211        39.94258         0.32843
C         49.06852        39.20336         0.46385
C         50.27857        41.31861         0.10236
C         49.01203        42.02103        -0.04012
C         50.24716        44.16799        -0.09958
C         49.01782        43.41475        -0.11025
C         50.22536        45.54913        -0.08747
C         48.97253        46.28446         0.31142
C         50.18275        48.44615        -0.07025
C         48.99570        47.75047        -0.04156
C         50.19115        49.95819         0.10433
C         48.93927        50.52148        -0.61085
C         50.18264        52.79297        -0.59688
C         48.88850        52.04289        -0.67992
C         50.14184        54.25241        -0.39908
C         48.89107        54.89362        -0.43464
C         50.15057        57.10924        -0.40694
C         48.83866        56.38979        -0.64843
C         50.13189        58.51359        -0.33641
C         48.87501        59.23156        -0.21561
C         50.10681        61.38369        -0.34020
C         48.88197        60.65740        -0.20203
C         50.07890        62.79655        -0.39161
C         48.87557        63.51883        -0.19918
C         50.05515        65.71253        -0.33464
C         48.87000        64.95702        -0.12104
C         50.06295        67.11016        -0.18389
C         48.88791        67.79741         0.19133
C         50.13827        69.95571         0.26866
C         48.90393        69.23031         0.34340
C         50.14303        71.34912         0.55371
C         48.93851        72.05130         0.69808
C         50.15799        74.19968         0.56631
C         48.93943        73.50674         0.70092
C         51.49965        42.06023         0.01783
C         52.73554        44.20096        -0.10924
C         51.51905        43.44768        -0.10483
C         52.74622        45.59335        -0.21208
C         51.44943        46.30775        -0.52270
C         52.65042        48.47683        -0.22637
C         51.45301        47.77124        -0.16243
C         52.66559        49.92881        -0.26971
C         51.45726        50.65101        -0.32840
C         52.65647        52.78399        -0.29627
C         51.45027        52.05303        -0.40533
C         52.62805        54.24342        -0.29721
C         51.38314        54.95435        -0.37479
C         52.61205        57.10717        -0.48019
C         51.38230        56.39628        -0.41569
C         52.59516        58.53947        -0.52903
C         51.36363        59.24819        -0.40605
C         52.59720        61.38607        -0.49194
C         51.36107        60.67567        -0.43320
C         52.62100        62.82469        -0.61159
C         51.32016        63.51648        -0.74162
C         52.57857        65.75900        -0.67691
C         51.29360        65.02465        -0.76156
C         52.55677        67.13798        -0.59701
C         51.25746        67.90407        -0.66642
C         52.58410        69.96322        -0.00568
C         51.34251        69.28540        -0.06411
C         52.65552        71.34417         0.31686
C         51.43954        72.05392         0.84210
C         52.61866        74.21090         0.39986
C         51.41058        73.53529         0.53717
C         53.93445        46.35697        -0.20268
C         55.12502        48.51217        -0.34688
C         53.92103        47.76851        -0.28027
C         55.14875        49.91969        -0.34882
C         53.88917        50.64367        -0.30463
C         55.14063        52.75717        -0.01422
C         53.86876        52.05468        -0.22702
C         55.12629        54.28122        -0.05087
C         53.83742        54.96689        -0.26797
C         55.09799        57.05442        -0.56964
C         53.85735        56.37982        -0.44292
C         55.07112        58.49562        -1.01016
C         53.82043        59.26435        -0.62052
C         55.11531        61.42453        -0.30381
C         53.82392        60.65803        -0.52042
C         55.08913        62.87519        -0.72931
C         53.81234        63.55628        -0.72676
C         55.02632        65.69654        -0.90962
C         53.82350        65.01196        -0.77086
C         55.01769        67.15695        -0.95145
C         53.78474        67.88649        -0.59358
C         55.07188        69.88353         0.18637
C         53.80407        69.24143        -0.29574
C         55.10036        71.38754         0.12270
C         53.87962        72.06718         0.26358
C         55.09106        74.20490         0.36629
C         53.87742        73.52442         0.35391
C         56.36410        50.65172        -0.44100
C         57.57706        52.81592        -0.45663
C         56.39619        52.04805        -0.32192
C         57.57832        54.21840        -0.49070
C         56.38447        54.97015        -0.38159
C         57.59317        57.10259        -0.78599
C         56.34258        56.37801        -0.59025
C         57.60069        58.51262        -0.82929
C         56.31492        59.22993        -0.50174
C         57.58954        61.41995        -0.76882
C         56.28647        60.69841        -0.96464
C         57.56400        62.82496        -0.81053
C         56.28953        63.53039        -0.90490
C         57.57752        65.69956        -0.82295
C         56.31259        64.98947        -1.29034
C         57.60238        67.09625        -0.68820
C         56.36428        67.90870        -0.82272
C         57.58152        69.85843         0.27014
C         56.33221        69.24599        -0.27447
C         57.56712        71.37198         0.16437
C         56.35010        72.07118         0.18440
C         57.55940        74.20210         0.46610
C         56.35242        73.52421         0.32680
C         58.90607        54.89898        -0.74337
C         60.02608        57.11629        -0.93412
C         58.83919        56.40627        -0.83968
C         60.05256        58.54335        -0.93361
C         58.80353        59.24495        -0.87025
C         60.03534        61.39853        -0.78359
C         58.80407        60.69192        -0.80542
C         60.02997        62.82384        -0.72789
C         58.79757        63.53872        -0.76616
C         60.03738        65.66823        -0.56001
C         58.79867        64.97874        -0.71560
C         60.05075        67.08622        -0.45536
C         58.82118        67.77091        -0.46660
C         60.08452        69.98518        -0.23741
C         58.79422        69.24431        -0.38221
C         60.02201        71.36570         0.24780
C         58.82018        72.06209         0.27330
C         60.02836        74.20663         0.46149
C         58.82965        73.52519         0.43195
C         61.26399        59.26514        -0.91636
C         62.49770        61.39901        -0.75307
C         61.28338        60.67792        -0.82230
C         62.51399        62.80703        -0.64008
C         61.27234        63.53032        -0.64022
C         62.51146        65.64859        -0.40172
C         61.27886        64.94564        -0.53335
C         62.52494        67.07217        -0.27145
C         61.30152        67.80524        -0.30413
C         62.55179        69.89545         0.06926
C         61.33064        69.20811        -0.15090
C         62.56135        71.30914         0.36751
C         61.27927        72.04283         0.70443
C         62.57525        74.13774         0.79619
C         61.33771        73.49127         0.20263
C         63.73393        63.52843        -0.52603
C         64.98214        65.64984        -0.25113
C         63.75060        64.92345        -0.39948
C         65.00727        67.02916        -0.12284
C         63.76103        67.77451        -0.14705
C         65.06053        69.94199        -0.11525
C         63.76934        69.17459         0.00088
C         65.01610        71.31052         0.51995
C         63.75592        71.98613         0.61229
C         64.94539        74.06252         1.55907
C         63.71026        73.41229         0.97160
C         66.23712        67.74789         0.11704
C         67.47222        69.82755         0.57035
C         66.27581        69.12296         0.25170
C         67.46792        71.20223         0.82037
C         66.21569        71.93879         0.87268
C         67.43605        73.93137         1.57576
C         66.23368        73.30885         1.31460
C         68.68569        71.89915         1.11485
C         68.66930        73.22819         1.45512
O         43.79365        55.77849        -1.68323
O         36.73947        68.29154        -1.77118
O         49.54470        52.49821        -1.92604
O         40.44439        57.67348         1.97539
O         36.89995        54.80635        -1.36983
O         40.17224        71.79176        -0.96855
O         40.61632        67.42604         2.37900
O         32.95000        54.25365         1.16366
O         46.04228        69.47184         2.40736
O         35.46239        53.02414         1.44768
O         55.69647        67.71876        -2.14311
O         38.20153        63.27847        -0.59175
O         47.17246        43.72669        -1.68268
O         55.18165        53.54013         1.22497
O         51.16934        64.26780        -2.01777
O         36.95562        52.35683        -1.76775
O         30.91326        67.46714         1.61532
O         59.35145        69.88832        -1.55150
O         44.58073        39.19893        -1.06172
O         48.95452        46.24592         1.78698
H         48.16899        46.77424         2.07406
O         55.34013        61.47895         1.13688
H         54.52168        61.82286         1.55152
O         47.96382        56.81132         1.53879
H         47.25696        57.24787         2.05829
O         46.54593        47.75176         1.78629
H         45.70542        47.39887         2.15052
O         38.30589        41.52245        -0.82423
H         38.94732        41.57534        -1.56376
O         61.19304        72.07514         2.16145
H         61.93230        72.63275         2.48768
O         28.19411        64.77181         1.31957
H         28.71543        64.27034         1.98229
O         35.37837        66.18271        -1.83876
H         35.76121        66.84344        -2.46418
O         33.44520        67.69187        -1.85386
H         33.48092        66.76326        -2.17591
O         41.25382        50.67233        -2.25785
H         40.86265        49.82283        -2.57829
O         47.36820        48.18274        -1.73206
H         48.04739        48.67388        -2.25595
O         65.20993        70.21185        -1.56343
H         65.23469        69.34201        -2.01703
O         34.26637        63.41639        -1.30557
H         34.89623        64.14304        -1.53079
O         56.22197        59.15557         0.94074
H         56.88180        59.76827         1.32777
O         51.00999        68.12728        -2.10397
H         50.99883        67.24733        -2.53941
O         38.82405        64.89354         2.58122
H         39.21869        65.72189         2.93325
O         57.71951        69.53494         1.69577
H         56.81739        69.62675         2.09279
O         38.79247        55.72104         2.11463
H         39.17971        56.43076         2.68194
O         36.45839        63.51191         2.60108
H         35.62309        63.91359         2.91773
O         41.02463        72.10963         2.54451
H         41.60038        72.73623         3.03334
O         38.03912        45.63235         2.28568
H         38.15511        46.56702         2.55876
O         43.83860        43.01416        -1.86035
H         44.74114        42.85383        -2.21057
O         38.52243        70.00595        -1.86787
H         38.21000        69.20289        -2.34692
O         43.74935        64.77897        -1.19308
H         43.75483        65.67168        -1.59638
O         30.13625        67.64537        -1.48025
H         29.73802        68.22888        -2.15976
O         55.05990        58.39418        -2.45923
H         55.12203        59.31572        -2.81535
O         23.11782        70.40257        -2.43113
H         23.89027        70.99203        -2.55707
O         55.00868        69.62721         1.68794
H         54.24784        70.15236         2.02649
O         59.50554        54.36099        -1.93914
H         58.94051        54.60863        -2.69955
O         51.58245        71.97211         2.32073
H         50.79274        72.40820         2.70803
O         42.62077        69.90581         2.92688
H         41.84573        70.47109         3.16246
O         51.36487        46.31013        -2.00431
H         51.39677        45.37398        -2.29799
O         37.09246        44.00651        -0.82017
H         37.19144        43.06102        -1.08802
O         61.51012        73.44390        -1.24185
H         61.50854        74.36321        -1.57945
O         40.20534        52.48394         1.57575
H         40.82176        53.14592         1.95954
O         47.74541        50.06402         1.45248
H         47.04252        49.49601         1.85384
O         28.74462        65.44153        -2.22293
H         28.16730        65.85973        -2.89420
O         33.88633        50.33352        -2.05613
H         34.71711        50.68385        -2.44180
O         43.66782        50.57159         1.45147
H         42.71912        50.34208         1.59831
O         32.16244        56.79590         1.96232
H         32.16455        55.82899         2.15931
O         40.57323        49.77040         1.27193
H         40.38533        50.66777         1.65298
O         43.76487        60.74319        -1.59403
H         44.52561        60.26630        -1.99018
O         56.03419        60.78031        -2.40111
H         56.89404        60.75585        -2.87075
O         49.07060        50.06278        -1.97781
H         49.43930        50.82444        -2.49355
O         39.93516        48.40162        -2.08600
H         39.88119        47.47120        -2.39130
O         44.12338        63.65376         2.24904
H         44.13226        62.76317         2.65715
O         50.24460        50.21596         1.52800
H         49.40676        49.88951         1.93760
O         36.49117        59.33346        -1.30157
H         37.24808        59.91304        -1.53689
O         44.17920        42.47883         1.75536
H         44.14034        41.68368         2.32701
O         65.06007        75.42324         1.12630
H         65.24136        75.42030         0.16420
O         48.52733        56.58667        -2.05962
H         49.17529        56.07722        -2.59004
O         33.85647        59.09807         2.30266
H         33.31780        58.30259         2.53534
O         22.92216        70.60028         1.22307
H         22.87515        71.34597         1.85754
O         56.37151        65.04539        -2.75575
H         56.23665        65.99412        -2.99742
O         41.07197        37.05249        -0.39711
H         41.72223        37.26022        -1.10009
O         30.45660        75.48641        -0.20960
H         30.48063        75.27503        -1.16509
O         31.50520        64.73468         2.34043
H         31.37407        65.64939         2.67950
H         23.03695        75.18322        -0.09521
H         25.49939        75.20956         0.05800
H         27.97144        75.23442         0.27252
H         30.44712        74.54342         1.61173
H         32.94360        75.25882         0.32945
H         35.41238        75.25558         0.34148
H         37.78932        75.28402         0.51352
H         40.29691        75.35103         0.54504
H         42.78823        75.29779         0.45757
H         45.23464        75.28225         0.63730
H         47.68096        75.27882         0.64851
H         50.13662        75.29429         0.44842
H         52.61846        75.31002         0.32950
H         55.09116        75.30293         0.44465
H         57.55130        75.29556         0.59266
H         60.02510        75.30882         0.47161
H         62.58497        75.21873         1.00976
H         64.79619        74.10590         2.67739
H         67.44102        74.98477         1.88989
H         22.20948        69.31783        -0.92980
H         20.84736        71.47796        -0.47635
H         20.90441        73.94343        -0.42281
H         24.61668        65.12777        -1.31682
H         23.44387        67.29138        -1.33319
H         27.15560        60.76107        -1.36729
H         25.84710        62.91414        -1.25186
H         29.73473        56.51662        -1.36311
H         28.40560        58.62510        -1.28130
H         31.84622        51.87943        -0.85120
H         31.06611        54.56382        -1.61767
H         34.32745        47.83013         0.13354
H         33.08619        49.90235        -0.20603
H         37.09102        43.62990         1.24127
H         35.59634        45.80767         0.73428
H         39.40731        39.32675         0.81118
H         38.34961        41.59280         1.23925
H         42.00879        35.18767         1.85752
H         40.79583        37.36998         1.61843
H         45.50923        32.06462         2.85607
H         43.31605        33.20478         2.55906
H         47.63450        33.24980         2.33116
H         48.82840        35.28417         1.59750
H         50.02434        37.32633         0.95114
H         51.24058        39.41471         0.44467
H         52.45116        41.51084         0.08306
H         53.68823        43.66110         0.00682
H         54.90192        45.83763        -0.11864
H         56.08015        47.96610        -0.38626
H         57.30642        50.10378        -0.59384
H         58.53090        52.29253        -0.62086
H         59.60557        54.62956         0.09409
H         60.97966        56.56855        -0.96446
H         62.21740        58.71694        -0.94726
H         63.45070        60.84952        -0.77137
H         64.68396        62.97328        -0.52662
H         65.92581        65.08433        -0.22192
H         67.16165        67.16453         0.24999
H         68.41274        69.26434         0.67146
H         69.63615        71.34900         1.05836
H         69.60887        73.75696         1.66849
