         294
 CSIRO Nanostructure Databank - Neutral Graphene Oxide Data Set
C          1.19894         2.05836         1.87860
C          1.16904         3.48704         1.67402
C          2.31521         1.32410         1.61721
C          2.19707         4.14747         1.06881
C          0.99527         6.38232         0.69599
C          1.02095         7.70740         0.48148
C          2.26844         5.67445         1.11823
C          2.26577         8.48840         0.73152
C          1.22272        10.76209        -0.11138
C          1.36633        12.02839        -0.57706
C          2.34183        10.02840         0.50337
C          2.59090        12.78402        -0.39995
C          1.67297        14.85051        -1.39872
C          1.81905        16.12918        -1.80634
C          2.67218        14.14532        -0.61600
C          2.90185        17.02665        -1.27410
C          3.43793        17.99208        -2.31533
C          3.50041         1.92903         1.03833
C          3.37013         3.36124         0.62232
C          4.66142         1.21697         0.89244
C          4.64152         4.09709         0.27267
C          3.41850         6.30555         0.27945
C          3.53394         7.76619         0.64531
C          4.70586         5.55877         0.41776
C          4.76691         8.41886         0.75120
C          3.68243        10.62045         0.43212
C          3.85864        11.99049        -0.19178
C          4.79558         9.88015         0.75636
C          5.02070        12.77911         0.37218
C          3.76698        14.96929         0.04878
C          4.03214        16.27457        -0.63219
C          5.03848        14.20501         0.33340
C          5.20900        17.12898        -0.26584
C          4.73358        18.31365        -2.42818
C          5.82522        17.73612        -1.54764
C          5.86622         1.83320         0.21198
C          5.89583         3.32735         0.62606
C          7.23320         1.17458         0.39034
C          7.13484         4.00052         0.04550
C          5.93080         6.23951         0.49270
C          5.99046         7.66060         0.61670
C          7.14754         5.50738         0.19810
C          7.31990         8.31288         0.55430
C          6.09165        10.58611         0.90269
C          6.12851        12.06003         0.78194
C          7.36761         9.81094         0.68723
C          7.44442        12.72298         1.07651
C          6.24783        14.90762         0.61326
C          6.29462        16.40065         0.53447
C          7.42477        14.22136         0.90045
C          7.59155        17.13150         0.73197
C          6.87400        18.81242        -1.18117
C          7.83843        18.37125        -0.07304
C          8.42765         1.86835         0.42007
C          8.40245         3.37645         0.67509
C          9.71240         1.24490         0.19575
C          9.58831         4.01822         0.01074
C          8.28649         6.11128        -0.27335
C          8.54053         7.56486         0.01150
C          9.36456         5.18860        -0.63678
C          9.72304         8.38761        -0.52272
C          8.50979        10.57148         0.06710
C          8.49071        12.07232         0.12533
C          9.75784         9.85869        -0.24053
C          9.75610        12.85548        -0.23976
C          8.73320        14.89765         1.04285
C          8.83040        16.39326         1.32530
C          9.92725        14.19309         0.46354
C         10.12200        17.04833         0.85668
C          9.00965        19.02962         0.04865
C         10.09480        18.56259         1.01379
C         10.94392         1.93413         0.09786
C         10.93798         3.43375         0.37755
C         12.15151         1.32374        -0.31159
C         12.22429         4.08347        -0.23266
C         11.27676         6.31105        -0.80052
C         11.07224         7.76956        -0.88357
C         12.25015         5.60963        -0.15212
C         12.35802         8.58833        -0.96768
C         10.98898        10.56462        -0.21161
C         11.03681        12.05820         0.12057
C         12.23137         9.93983        -0.31972
C         12.23111        12.75586        -0.58360
C         11.14546        14.95360         0.05662
C         11.14420        16.40683         0.21848
C         12.23924        14.26527        -0.38714
C         12.18139        17.20701        -0.58134
C         11.41412        19.21250         0.68763
C         12.39238        18.59360         0.01160
C         13.43680         1.98558        -0.32808
C         13.46195         3.32675         0.38592
C         14.59414         1.43266        -0.81459
C         14.78655         4.14816         0.39995
C         13.54700         6.33433        -0.07234
C         13.58804         7.76816        -0.51783
C         14.78997         5.65603         0.46002
C         14.77757         8.52486         0.07252
C         13.47003        10.64500         0.18231
C         13.49855        12.12034        -0.08275
C         14.76045        10.00024        -0.36795
C         14.64869        12.78545         0.18418
C         13.53176        14.94777        -0.65838
C         13.57374        16.46917        -0.89307
C         14.77905        14.21347        -0.21597
C         14.82758        17.11824        -0.31025
C         13.57409        19.33360        -0.55954
C         14.86402        18.56968        -0.33741
C         15.92774         2.05808        -0.62862
C         16.06714         3.43216         0.04212
C         17.04060         1.63852        -1.48855
C         17.28675         4.22628        -0.27195
C         16.11482         6.46914         0.50501
C         16.08370         7.77941        -0.30949
C         17.37569         5.64151         0.19620
C         17.37196         8.58021        -0.13335
C         15.99130        10.73449         0.11543
C         15.89401        12.05195         0.46236
C         17.30146        10.08949        -0.29921
C         16.92830        12.87114         1.20161
C         16.00319        14.96684         0.16953
C         15.97774        16.41068         0.00010
C         17.05754        14.31474         0.78374
C         17.33970        17.08620        -0.00927
C         16.02087        19.26025        -0.09260
C         17.28325        18.60060         0.12479
C         18.21612         2.34415        -1.55841
C         18.34405         3.65712        -0.94033
C         19.33680         1.84314        -2.36048
C         19.57842         4.46006        -1.34762
C         18.62664         6.43547        -0.02998
C         18.56211         7.91680        -0.20002
C         19.83964         5.71245        -0.52725
C         19.80565         8.68814        -0.62218
C         18.52242        10.72482         0.33364
C         18.64259        12.20998         0.37044
C         19.81398        10.00372         0.14731
C         19.73003        12.74843         1.32145
C         18.29647        15.02622         1.21932
C         18.29882        16.54970         1.07024
C         19.60513        14.29338         1.46426
C         19.69427        17.14829         0.86799
C         18.39752        19.31181         0.46666
C         19.70672        18.65661         0.67500
C         20.56178         2.40269        -2.32843
C         20.84784         3.57722        -1.42057
C         22.01426         4.43232        -1.88652
C         21.14421         6.42586        -0.68692
C         21.22938         7.96768        -0.57684
C         22.14892         5.72585        -1.54672
C         22.05545         8.54683         0.56350
C         21.11006        10.80644         0.09680
C         20.95801        12.24691         0.59019
C         22.07211         9.86855         0.82741
C         21.80048        13.21803        -0.01376
C         20.95484        15.00960         1.53321
C         20.86675        16.52301         1.50805
C         21.82131        14.52961         0.38459
C         21.93619        17.29051         1.86476
C         20.83395        19.39410         1.26098
C         21.89499        18.73090         1.79088
O         10.32135         5.62778        -1.54747
O          6.54090        17.13824         1.78534
O         18.32641         5.86521         1.29192
O          3.76974         3.60042        -0.80715
O          9.68546        14.15549         1.89137
O          6.94440        10.14770         2.03340
O         14.38821        14.28464        -1.64406
O         18.73671        14.64705         2.57564
O         16.30742         2.21636         0.79773
O         20.03327        17.72528        -0.42391
O         10.09110         8.11989        -1.91762
O         14.76174         4.88248         1.68903
O          8.35638         7.75279         1.45031
O          7.95216        11.43361        -1.05639
O         19.13332         9.99103         1.42324
O         17.07867        12.55348         2.42762
O         11.55296        17.48746        -1.81784
O          2.09266         9.44051         1.82391
O         20.86251         5.65462         0.52483
O         13.89787         6.73442        -1.47369
O          9.74144        18.96254         2.35219
H          9.35974        18.17901         2.82111
O         17.88334        16.71354        -1.29846
H         17.27906        17.05577        -1.99025
O         11.27509        12.15635         1.54247
H         10.43600        12.34554         2.02471
O         21.94626         8.35730        -1.78055
H         21.39564         8.08798        -2.54979
O          4.26971        11.66840        -1.57538
H          4.46344        12.51176        -2.03791
O         21.59089        14.59234         2.76871
H         21.19632        13.73442         3.04215
O         13.30425         2.91421         1.76692
H         13.75237         3.58719         2.33302
O         19.60635         9.05418        -2.02831
H         20.20583         9.83229        -2.18256
O          4.73162        18.25955         0.53256
H          5.18113        18.17042         1.41466
O         12.28850         3.74686        -1.63662
H         11.59279         4.27037        -2.09964
O         12.16555        12.47361        -1.99771
H         12.90057        12.97958        -2.41543
O          3.19358        15.36454         1.35943
H          2.47655        16.01248         1.16627
O         21.49799        10.89535        -1.30568
H         22.13415        10.16282        -1.50263
O          5.60718         1.69378        -1.22546
H          4.76298         2.18017        -1.41024
O         12.56833         8.83696        -2.38145
H         11.69036         9.05548        -2.76728
O         16.12848         7.51606        -1.72570
H         15.55449         8.18062        -2.17773
O         16.27545         6.89316         1.86598
H         16.24832         6.09148         2.43203
O          6.22436        20.03739        -0.84229
H          5.55078        19.82994        -0.15362
O          5.84623         3.37843         2.06792
H          6.76274         3.34563         2.43918
O         13.79652        16.63288        -2.30586
H         12.91238        16.91447        -2.67622
O         14.74557        10.02187        -1.81031
H         15.54738        10.49696        -2.12906
O          9.70991        13.15150        -1.63408
H          9.29873        12.38176        -2.08994
O          2.56449         6.01128         2.49387
H          1.81594         5.72629         3.05749
O         17.39647        10.43941        -1.73689
H         18.04692         9.79890        -2.14312
O         13.31102        19.51716        -1.95781
H         12.61949        18.84130        -2.20973
O         17.81287        17.07488         2.32853
H         18.12844        16.46747         3.03694
O          3.02986         6.23679        -1.12575
H          3.14414         5.29609        -1.40830
O          8.77342        16.52795         2.76599
H          7.82383        16.47374         3.02414
O         10.95474         3.67467         1.81433
H         11.68862         3.12818         2.19822
O         18.56197        12.78096        -0.87061
H         18.13014        12.14231        -1.49562
O          7.92012        12.41540         2.41022
H          7.17401        12.49889         3.03910
O          8.40291         3.60979         2.09957
H          9.35264         3.61878         2.39112
O          2.24215        17.80412        -0.21193
H          2.96096        18.32486         0.22915
O         13.45334        10.53843         1.63325
H         12.70864        11.10967         1.94932
O         14.54786         8.44090         1.47787
H         15.18277         9.01336         1.95742
O         19.30845         4.96402        -2.68581
H         19.11953         4.19447        -3.26494
O          6.48593        16.64653        -2.22616
H          6.89101        16.98620        -3.05151
O         21.15356         3.04228        -0.11888
H         21.24818         3.81133         0.49410
O          7.19109         3.78190        -1.38247
H          6.81750         2.88713        -1.59322
O         19.63069        12.18594         2.61604
H         18.71790        12.39038         2.95713
H          0.31299         1.57755         2.31567
H          0.29791         4.04684         2.04770
H          2.33926         0.24831         1.84394
H          0.06514         5.80903         0.56239
H          0.10098         8.24637         0.21083
H          0.23718        10.27738        -0.15398
H          0.47789        12.54196        -0.97162
H          0.83065        14.26800        -1.80037
H          1.06675        16.58146        -2.46938
H          2.69950        18.46287        -2.98393
H          4.68147         0.15552         1.18556
H          5.04870        19.03851        -3.19644
H          7.26246         0.08304         0.23039
H          7.48681        19.01996        -2.09903
H          9.71628         0.15666         0.01306
H          9.20865        19.89490        -0.60296
H         12.11964         0.26768        -0.62775
H         11.54184        20.25389         1.02323
H         14.56424         0.45905        -1.32928
H         13.66569        20.34772        -0.08056
H         16.91935         0.72263        -2.08715
H         15.99872        20.36116        -0.05942
H         19.15223         0.94965        -2.97712
H         18.33569        20.40596         0.58007
H         21.38551         1.96997        -2.91684
H         22.80326         3.94703        -2.48287
H         23.03125         6.29562        -1.87522
H         22.71311         7.86429         1.12231
H         22.70888        10.26325         1.63309
H         22.51796        12.87748        -0.77656
H         22.53547        15.22975        -0.07166
H         22.82879        16.80939         2.28856
H         20.77823        20.49203         1.30884
H         22.73747        19.29543         2.21582
