         576
 CSIRO Nanostructure Databank - Neutral Graphene Oxide Data Set
C          5.93747        18.94633        -0.03250
C          5.93497        20.30245        -0.13814
C          4.93106        21.04154        -0.88722
C          5.96819        23.24142        -0.42268
C          4.94345        22.39648        -1.01310
C          6.03990        24.58637        -0.62067
C          8.31223        14.68359         0.35408
C          8.28551        16.07750         0.60478
C          7.07819        16.77882         0.53095
C          8.21858        18.96546         1.00983
C          6.90375        18.22718         0.89325
C          8.26914        20.33726         0.83791
C          7.01315        21.08271         0.52645
C          8.33105        23.28652         0.42233
C          7.02646        22.57810         0.39373
C          8.40636        24.63283         0.14253
C          7.09711        25.39481         0.10833
C          8.42761        27.48354        -0.42397
C          7.22976        26.82932        -0.33306
C          8.50489        28.90981        -0.58602
C         10.87283        10.37369         0.22014
C         10.82167        11.84021         0.06633
C          9.61460        12.47025         0.26805
C         10.83838        14.69899         0.69758
C          9.50237        13.89841         0.59687
C         10.77438        16.18083         0.73650
C          9.53584        16.78707         0.88170
C         10.74738        18.95093         1.54033
C          9.45095        18.19640         1.30451
C         10.66061        20.45612         1.54066
C          9.47539        21.08054         1.00335
C         10.87831        23.20024         0.48926
C          9.54740        22.47028         0.52906
C         10.86718        24.66326         0.28496
C          9.66700        25.31710         0.03058
C         10.94222        27.49223        -0.10589
C          9.72235        26.71143        -0.54312
C         10.94780        28.88512        -0.20085
C          9.71052        29.60381        -0.50688
C         10.92563        31.75883        -0.54680
C          9.75122        31.02118        -0.68878
C         10.98352        33.15174        -0.88069
C         13.49393         6.29252        -0.86512
C         13.35946         7.73384        -0.84747
C         12.12928         8.20961        -0.37487
C         13.39932        10.72179        -1.21018
C         11.67545         9.56134        -0.53619
C         13.28192        12.13721        -0.80382
C         12.02526        12.66582        -0.17194
C         13.22653        14.84916        -0.06230
C         12.01729        14.00483         0.17250
C         13.23769        16.31879         0.18399
C         11.99914        16.97114         0.70616
C         13.24246        19.11010         1.01369
C         11.99565        18.29903         1.07356
C         13.28119        20.41889         1.80916
C         12.02485        21.26240         1.60752
C         13.38532        23.10398         0.47166
C         12.08938        22.56774         1.01365
C         13.38895        24.62927         0.34407
C         12.12053        25.36721         0.27434
C         13.35753        27.51552         0.46947
C         12.14664        26.77474         0.17790
C         13.33812        28.95152         0.39132
C         12.16313        29.62347         0.01527
C         13.31316        31.78892        -0.00194
C         12.14992        31.07166        -0.15267
C         13.32951        33.25200        -0.15157
C         12.15009        33.90738        -0.75757
C         13.49565        35.92802        -1.36919
C         12.27838        35.22642        -1.28513
C         13.55523        37.06432        -2.29150
C         15.86660         6.42814        -1.37367
C         14.65683         5.66823        -1.18820
C         15.79484         7.86988        -1.30032
C         14.55261         8.52544        -1.17187
C         15.83554        10.78330        -1.28116
C         14.54934         9.98025        -1.13012
C         15.85623        12.07417        -0.49018
C         14.59749        12.81939        -0.49651
C         15.73233        14.71386         0.83502
C         14.49600        14.10165         0.24091
C         15.78082        16.18369         0.86891
C         14.63646        16.98902         0.25823
C         15.82196        19.00196         1.28424
C         14.55480        18.41474         0.78762
C         15.78805        20.41393         1.73789
C         14.55110        21.18990         1.50191
C         15.83150        23.28522         1.30734
C         14.59221        22.51602         1.18096
C         15.82786        24.70183         1.24679
C         14.64618        25.42315         0.71984
C         15.64025        27.63827         1.47901
C         14.52716        26.87144         0.87275
C         15.69290        29.09946         1.20534
C         14.57869        29.67421         0.64142
C         15.90158        31.75559         0.00017
C         14.59352        31.06794         0.13785
C         15.93617        33.23132        -0.20673
C         14.65980        33.97234        -0.23934
C         15.93349        35.93723        -0.89640
C         14.68521        35.32003        -0.83956
C         15.98864        37.59653        -2.29701
C         14.64126        37.71136        -2.82583
C         18.31950         6.47573        -1.60101
C         17.07151         5.77310        -1.58200
C         18.31264         7.88378        -1.35195
C         17.05791         8.60486        -1.27194
C         18.31665        10.75744        -0.95716
C         17.07541         9.97873        -1.10980
C         18.28478        12.03776        -0.23787
C         17.04554        12.67231        -0.03405
C         18.30495        14.71920         0.86054
C         17.03047        13.87396         0.91604
C         18.22744        16.11782         1.19327
C         16.99979        16.84534         1.04916
C         18.31555        19.03586         1.08242
C         16.99781        18.30317         1.21905
C         18.33160        20.47218         1.52042
C         17.07450        21.17015         1.77784
C         18.26103        23.33333         1.67098
C         17.03981        22.62599         1.61088
C         18.21243        24.74229         1.76829
C         16.98632        25.42349         1.61464
C         18.15618        27.67221         2.24332
C         16.88832        26.88289         1.88606
C         18.20562        29.08568         1.72079
C         16.93932        29.95129         1.57690
C         18.32857        31.98097         0.51885
C         17.17005        30.99246         0.42547
C         18.36895        33.06985        -0.47699
C         17.10980        33.83816        -0.59071
C         18.37371        35.88160        -1.36372
C         17.17001        35.23875        -0.95095
C         18.41939        37.11641        -2.14614
C         17.23316        37.61939        -2.86425
C         20.77000         6.49142        -1.77207
C         19.53237         5.80434        -1.83392
C         20.75570         7.86875        -1.39741
C         19.55660         8.55531        -1.22336
C         20.80311        10.60025        -0.29086
C         19.62599        10.02272        -0.99130
C         20.82925        11.88247         0.20996
C         19.60517        12.77170        -0.10899
C         20.84211        14.73549         0.85734
C         19.51504        14.06648         0.66626
C         20.74658        16.05352         1.61123
C         19.43896        16.82438         1.64631
C         20.71230        18.99969         1.67387
C         19.52523        18.30058         1.58214
C         20.77360        20.44552         1.52599
C         19.52422        21.17880         1.55597
C         20.73443        23.33387         1.51074
C         19.52520        22.62296         1.64569
C         20.73135        24.76539         1.47954
C         19.49158        25.46653         1.88161
C         20.63173        27.66844         1.25407
C         19.49478        26.94831         1.99506
C         20.72464        29.13781         1.59804
C         19.44161        29.68798         1.92280
C         20.78785        32.19784         0.87516
C         19.47806        31.76247         1.22954
C         20.87008        33.31986         0.05078
C         19.65707        33.83174        -0.62506
C         20.83450        35.93028        -1.14403
C         19.62521        35.24296        -1.06122
C         20.87387        37.23830        -1.77873
C         19.65257        37.70773        -2.38586
C         23.24649         6.54050        -1.93491
C         22.00408         5.87165        -2.10346
C         23.27410         7.84701        -1.33551
C         22.01892         8.67649        -1.31236
C         23.26772        10.32613         0.13748
C         21.95388         9.63151        -0.11922
C         23.19747        11.58922         0.87462
C         22.04735        12.40909         0.85998
C         23.17802        14.69595         1.57405
C         21.91401        13.81935         1.56531
C         23.17991        16.14016         1.47838
C         21.99129        16.83507         1.61970
C         23.30203        19.02482         1.75665
C         21.97866        18.26967         1.89830
C         23.26022        20.47020         1.43236
C         21.98414        21.15097         1.42498
C         23.17066        23.29527         1.17664
C         21.97939        22.59740         1.34829
C         23.21772        24.78259         1.46456
C         21.91362        25.51940         1.34959
C         23.15373        27.70168         1.23009
C         21.94510        26.93758         1.32843
C         23.15230        29.13608         1.24310
C         21.92172        29.87101         1.39037
C         23.30631        32.10970         1.11457
C         21.98113        31.40457         1.35009
C         23.30446        33.59380         0.68819
C         22.06704        34.05779        -0.06707
C         23.28482        36.07355        -0.72858
C         22.05478        35.33268        -0.64847
C         23.23708        37.55656        -0.98184
C         22.05743        37.95355        -1.83389
C         25.69316         6.58957        -2.09695
C         24.46413         5.92288        -2.29393
C         25.70381         7.82649        -1.36814
C         24.47147         8.44055        -0.94270
C         25.78571        10.08240         0.48138
C         24.45810         9.69396        -0.16862
C         25.72731        11.48390         1.12237
C         24.48138        11.94529         1.47397
C         25.61879        14.72171         1.36907
C         24.40747        14.14614         1.84582
C         25.63350        16.09147         1.10658
C         24.44193        16.86083         1.39092
C         25.79660        18.95793         1.23141
C         24.50476        18.24728         1.42592
C         25.79936        20.48946         1.32324
C         24.43327        21.15117         1.18360
C         25.59905        23.28591         0.76431
C         24.40845        22.58454         0.99644
C         25.59061        24.74120         0.57469
C         24.31406        25.52951         0.75258
C         25.61136        27.63178         0.77225
C         24.39352        26.99028         0.96996
C         25.81826        29.03671         1.28987
C         24.48409        29.89209         1.47647
C         25.55694        31.79250         0.09403
C         24.51278        31.27646         0.82221
C         25.56506        33.18824        -0.35299
C         24.49643        34.00403        -0.13065
C         25.73866        36.03511        -0.82805
C         24.47941        35.39088        -0.58292
C         25.77055        37.48366        -1.07726
C         24.56781        38.14579        -1.36493
C         28.12782         6.73719        -2.43811
C         26.91635         6.06381        -2.60573
C         28.12838         7.97968        -1.72560
C         26.94129         8.48627        -1.18904
C         28.30575         9.81629         0.28137
C         26.98793         9.79764        -0.44445
C         28.26381        11.80298         1.04010
C         26.92937        12.37316         1.35700
C         27.84098        14.48055         0.28194
C         26.84657        13.90730         1.22569
C         27.64948        15.84530        -0.15521
C         26.74597        16.71422         0.44020
C         28.06450        18.96434        -0.15975
C         26.95241        18.19051         0.60322
C         28.11513        20.41577         0.31782
C         26.78346        21.13587         0.30790
C         28.04333        23.26230         0.86129
C         26.86469        22.60605         0.65664
C         28.07175        24.75176         1.16417
C         26.83831        25.47255         0.68244
C         28.08789        27.52393         0.34338
C         26.82870        26.85090         0.63201
C         28.09071        28.86945         0.11140
C         27.02597        29.81490         0.64775
C         27.98290        31.66384        -0.71145
C         26.68912        30.90703        -0.37991
C         27.99598        33.02100        -1.03701
C         26.70173        33.76115        -1.18106
C         28.16469        35.90099        -1.05946
C         26.87697        35.25820        -0.96283
C         28.15215        37.31077        -0.43921
C         27.02789        38.10823        -1.05308
C         30.59903         6.68750        -2.53375
C         29.38367         6.20410        -2.95140
C         30.61315         7.68526        -1.39442
C         29.44899         8.70915        -1.57189
C         30.72690        10.21909         0.18902
C         29.46164         9.58959        -0.35647
C         30.62852        11.78678         0.02061
C         29.28872        12.41045         0.30785
C         30.74127        14.83700        -0.68178
C         28.89166        13.69963        -0.20250
C         30.73376        16.18534        -0.45559
C         29.55799        17.00840        -0.59698
C         30.60328        18.99935         0.36532
C         29.42855        18.28685        -0.10246
C         30.54321        20.30901         0.77442
C         29.26894        21.02473         0.72979
C         30.54920        23.19109         0.68241
C         29.29379        22.48013         1.18438
C         30.62862        24.69700         0.90090
C         29.32594        25.41697         0.62841
C         30.51133        27.29088        -0.50012
C         29.29327        26.70116         0.18305
C         30.53759        28.79826        -0.44006
C         29.20622        29.45291        -0.72605
C         30.47923        31.60728        -0.92787
C         29.19093        30.94582        -0.71378
C         30.53480        33.01630        -1.39003
C         29.18944        33.68618        -1.70967
C         30.54624        35.78507        -1.74666
C         29.26905        35.17722        -1.46483
C         30.59942        37.84871        -0.95767
C         29.46696        38.05204        -0.24881
C         33.06058         6.70933        -2.57301
C         31.86806         6.17517        -2.98441
C         33.15250         7.87351        -1.72098
C         31.91147         8.46450        -1.23750
C         33.21203        10.29757        -0.26967
C         31.93538         9.61759        -0.50635
C         33.13808        11.79570        -0.15393
C         31.79455        12.48202        -0.26284
C         33.20221        14.65789        -0.14404
C         31.91300        13.96029        -0.48252
C         33.13142        16.07079         0.33027
C         31.97985        16.89425        -0.12107
C         33.13857        18.94761         0.84880
C         31.92102        18.32531         0.27087
C         33.11588        20.32827         1.06782
C         31.78661        21.02945         1.28003
C         33.11158        23.16907         0.83823
C         31.83243        22.43448         0.72270
C         33.09638        24.54403         0.26939
C         31.84003        25.32846         0.24353
C         33.05442        27.40512        -0.54105
C         31.81986        26.63535        -0.11637
C         32.99551        28.87407        -0.11812
C         31.71446        29.50742        -0.27138
C         32.93170        31.78593        -0.21907
C         31.65717        30.99202        -0.24145
C         32.93913        33.17596        -0.72934
C         31.78297        33.80399        -1.14819
C         33.05549        36.01931        -1.59738
C         31.77070        35.19703        -1.51872
C         33.01661        37.32003        -0.79012
C         31.96929        38.12959        -0.52520
C         34.38501         8.43569        -1.39383
C         35.67894        10.33725        -0.40001
C         34.48818         9.67559        -0.68873
C         35.69825        11.72758        -0.02396
C         34.46496        12.53091        -0.40424
C         35.66015        14.63039         0.48280
C         34.36864        13.84163         0.40290
C         35.64076        15.98462         0.69678
C         34.37524        16.75912         0.76847
C         35.57163        18.96250         0.92421
C         34.36658        18.24467         0.83598
C         35.56614        20.36373         1.06144
C         34.32874        21.05640         1.18959
C         35.57956        23.27849         1.39390
C         34.27412        22.52473         1.16113
C         35.47775        24.80496         1.06941
C         34.39622        25.24997         0.09237
C         35.56061        27.53214         0.23527
C         34.38222        26.73080        -0.18972
C         35.44126        28.98914         0.58528
C         34.17324        29.64062         0.06243
C         35.43299        31.77625        -0.17314
C         34.19100        31.04514        -0.08017
C         35.41308        33.15274        -0.46834
C         34.21398        33.88372        -0.76675
C         34.25766        35.20829        -1.16213
C         36.85330        12.43219         0.25490
C         38.11696        14.56006         0.47792
C         36.91238        13.88020         0.42326
C         38.20144        16.00605         0.74914
C         36.88409        16.74768         0.91583
C         38.09330        18.94402         0.35017
C         36.82454        18.21484         0.60602
C         38.10169        20.41935         0.51399
C         36.89229        21.11466         1.14938
C         37.98045        23.32271         0.42698
C         36.67697        22.54320         0.54178
C         38.02189        24.76157         0.74144
C         36.81084        25.46436         0.79784
C         38.02816        27.58938         0.59275
C         36.81096        26.85516         0.67027
C         37.95425        29.00679         0.35791
C         36.73900        29.71027         0.25600
C         36.67644        31.08157        -0.02967
C         39.40198        16.80090         0.45664
C         40.56492        18.95547         0.23696
C         39.39894        18.21214         0.38569
C         40.55359        20.43144        -0.07009
C         39.25618        21.09985         0.33040
C         40.51677        23.31647         0.68007
C         39.27749        22.58807         0.33480
C         40.49544        24.68515         0.79929
C         39.26442        25.46052         0.73192
C         39.24954        26.87072         0.70450
C         41.73152        21.17567         0.54284
C         41.71143        22.49730         0.83272
O         37.62876        16.38837         2.10237
O         24.43811        12.90872         2.48309
O         15.30288        31.12385        -1.19636
O         17.12089        13.23969         2.16504
O         30.50221        37.12195        -2.16159
O         10.36575        22.48805        -0.72069
O         10.20415        14.14651         1.87706
O         38.62647        23.10740        -0.89820
O         33.41040        16.17286         1.76457
O         19.82631        26.17830         3.18166
O         12.22038        10.16407        -1.69220
O         14.68311        14.08644         1.67607
O         26.91524        18.44320         2.04414
O         27.17221        13.26385         2.51221
O         13.89325        33.93219         1.02946
O         32.27205        17.91472        -1.12953
O         28.45742        16.36267        -1.17163
O         19.41689        30.99741         2.38260
O         19.19112        10.78013        -2.18569
O         33.25511        10.96714         1.04420
O         35.37868        27.17679        -1.18920
O         16.42488        20.66404         3.03320
O         31.10445        22.65918        -0.54105
O         11.13266        21.13623         2.76091
O         13.93041        13.00057        -1.81790
O         13.91384        19.24859        -0.27310
O         13.08533        15.75705        -1.17917
O         37.24927        18.49178        -0.78111
O         30.78710        31.92120        -2.35716
O         26.24949        30.20105        -1.61270
O         15.98027        37.32940        -0.90968
O         29.63678        14.21692        -1.26691
O         14.34682        25.02709        -0.68993
O         35.90645        23.22140         2.76044
O         28.34011        10.51350         1.50756
O         30.45493         6.97319        -0.20746
O         32.05367        31.62687         0.99844
O          6.55838        21.94410         1.63378
O         10.03256        18.35964         2.66191
O         15.84908        27.19573         2.87681
O         22.72820        31.98420         2.45982
O         20.00494        16.14524         2.84129
O         26.27985        28.64852         2.58017
O         32.88291        14.43798        -1.54025
O         33.89307        24.48186        -1.01092
O         19.16560        32.89587        -1.68964
O         22.74189        18.69439         3.07696
O         24.69403        25.09905        -0.57145
O          6.66316        25.46883         1.50956
H          5.73920        25.79512         1.52346
O         30.86918        24.87014         2.32857
H         30.20548        24.31279         2.80713
O          9.90334        26.50620        -1.99229
H         10.02057        27.39055        -2.40013
O         21.67443         8.82477         1.05917
H         21.60237         9.42418         1.83151
O         22.08894         9.52683        -2.49936
H         21.96343         8.95953        -3.28865
O         27.06296        10.87921        -1.42918
H         26.28637        10.79656        -2.02370
O         32.99235        27.48450        -2.00224
H         33.92731        27.46110        -2.32269
O         29.72790         9.46764        -2.77035
H         29.03563        10.15867        -2.85033
O         36.13500        22.37747        -0.76686
H         36.86110        22.51209        -1.41897
O         18.47118        19.09004        -0.39793
H         19.31928        19.54644        -0.58844
O         27.71641        37.02890         0.93809
H         27.35788        37.85652         1.32198
O         29.36575        22.49849         2.63690
H         28.48987        22.22645         2.98836
O         22.96596        38.17386         0.34643
H         22.71191        39.10858         0.19152
O         26.16231        21.07100        -0.99338
H         26.55372        20.31162        -1.49469
O         28.87074        29.13286        -2.12163
H         29.20923        28.21336        -2.30016
O         27.65775        30.51511         1.74039
H         27.44644        29.93867         2.53125
O         30.34151        26.93815        -1.92472
H         31.23169        27.05505        -2.34606
O         26.30273        33.57661        -2.59360
H         27.13179        33.67959        -3.13184
O         24.37874        30.13485         2.89463
H         25.06707        29.53072         3.30744
O         21.48013        13.56123         2.90217
H         22.25992        13.30712         3.43934
O         34.02924        13.46964         1.75591
H         33.94888        14.30230         2.27821
O         37.28440        21.16731         2.52717
H         36.71344        21.86860         2.97637
O         28.95840        33.51881        -3.14738
H         29.39707        32.66402        -3.38941
O         35.00511        25.43742         2.29149
H         35.29331        24.81319         3.01539
O         35.30832        29.02480         2.03588
H         35.16926        29.95566         2.30953
O         15.11521        17.11277        -1.10548
H         14.62251        17.85980        -1.51692
O         23.59702        24.86776         2.88001
H         22.82838        24.58719         3.42097
O         33.28520        36.40555        -2.98165
H         33.28717        35.58961        -3.52398
O         34.70460        12.72148        -1.80888
H         34.01844        13.31847        -2.19101
O         19.84904        13.24140        -1.49571
H         19.75934        12.43689        -2.08101
O         40.69287        20.55574        -1.52269
H         40.35139        21.44060        -1.77598
O         15.85317        11.21174        -2.69234
H         15.12880        11.87854        -2.79924
O         18.07807        27.91084         3.67944
H         18.57074        27.17549         4.11801
O         28.06923        24.87451         2.62512
H         27.96770        25.82677         2.84417
O         21.40032        15.09254        -0.43184
H         21.01451        14.48925        -1.11812
O         23.35192        34.39439         1.89842
H         22.98573        33.83106         2.62161
O         26.29680        20.85659         2.63350
H         25.98798        20.18949         3.28242
O         27.64044        18.94659        -1.55854
H         28.41504        19.17261        -2.11616
O         30.82785         9.94417         1.59213
H         31.72122        10.24790         1.88100
O         13.38434        20.04173         3.19541
H         12.55590        20.32947         3.64901
O         16.66456        30.63712         2.80251
H         16.78327        29.99715         3.53796
O         17.56426        30.13971        -0.67875
H         17.45976        30.64270        -1.51504
O         25.94572         9.14810         1.57997
H         25.24265         9.31079         2.24230
O         25.23493        31.00102        -2.27127
H         25.72633        31.81344        -2.58925
O         13.48569        22.58518        -0.88975
H         13.96961        23.26098        -1.41878
O          6.26985        18.24275         2.21872
H          6.20856        19.17999         2.50434
O         20.19339        27.60841        -0.14823
H         20.90248        27.98585        -0.71124
O         31.66052        21.18107         2.72166
H         31.70133        20.29346         3.13369
H          5.14111        18.35646        -0.51296
H          4.12742        20.46064        -1.36416
H          4.15152        22.89193        -1.59496
H          5.28431        25.10225        -1.23408
H          7.41822        14.18953        -0.05402
H          6.16025        16.20931         0.31708
H          6.29967        27.42285        -0.35503
H          7.56806        29.47710        -0.70047
H         10.29156         9.94726         1.05119
H          8.69796        11.86384         0.32425
H          8.82221        31.53749        -0.97460
H         10.08130        33.62249        -1.30103
H         12.59425         5.69563        -0.65439
H         11.45822         7.48355         0.11141
H         11.39040        35.66555        -1.76715
H         12.58369        37.30054        -2.75789
H         14.70846         4.57140        -1.24298
H         14.47270        38.36889        -3.69329
H         17.08018         4.67734        -1.68103
H         17.37225        37.96324        -3.90026
H         19.52001         4.73096        -2.07322
H         19.69846        38.61627        -3.00523
H         22.00163         4.83680        -2.47605
H         22.07811        38.93274        -2.33895
H         24.44961         4.93290        -2.77317
H         24.59879        39.22398        -1.59495
H         26.89448         5.10433        -3.14378
H         27.13395        39.18252        -1.26465
H         29.33496         5.37406        -3.67479
H         29.54044        38.61988         0.69171
H         34.00168         6.26887        -2.93634
H         31.87072         5.32442        -3.68446
H         33.99183        37.61873        -0.37047
H         32.12740        38.99906         0.13378
H         35.30731         7.95332        -1.75252
H         36.63770         9.82149        -0.56695
H         36.37278        33.68733        -0.53538
H         35.23806        35.70257        -1.24897
H         37.80225        11.88179         0.35572
H         39.05603        14.01244         0.30413
H         38.89461        29.56421         0.21921
H         37.61011        31.64418        -0.18611
H         40.34934        16.26648         0.28262
H         41.53898        18.44152         0.26311
H         41.43646        25.22575         0.98544
H         40.20268        27.42078         0.68974
H         42.67274        20.61636         0.66059
H         42.62675        22.98951         1.19735
