         278
 CSIRO Nanostructure Databank - Neutral Graphene Oxide Data Set
C         30.69128        31.48418         1.70687
C         30.58768        32.74843         1.74210
C         30.37315        35.99921         1.02707
C         30.44859        37.22827         0.88711
C         30.43773        40.36196         0.15086
C         30.32345        41.59991         0.20017
C         33.30799        28.77027         1.55188
C         32.20327        29.33010         1.68542
C         33.05938        31.53616         1.30591
C         31.84103        30.69371         1.65531
C         32.87174        32.97818         0.86600
C         31.52599        33.66231         1.07155
C         32.83865        35.91878         1.23533
C         31.53366        35.13156         1.32595
C         32.79977        37.43302         1.05926
C         31.52066        38.14280         0.64687
C         32.77730        40.18225        -0.22156
C         31.51301        39.43154         0.21373
C         32.81169        41.69497         0.13559
C         31.51449        42.37768         0.75725
C         32.73408        44.41187         0.26544
C         31.65132        43.83117         0.42178
C         35.52845        27.29392        -0.22050
C         35.12373        28.74939        -0.23551
C         34.63691        29.31050         1.09706
C         35.31241        31.66415         0.09849
C         34.35827        30.85232         0.94379
C         35.32174        33.11889         0.45900
C         34.12401        33.79857         0.77985
C         35.32378        35.95003         0.72818
C         34.11675        35.21134         0.90666
C         35.36615        37.42415         0.75629
C         34.08175        38.17178         0.81482
C         35.25311        40.31019         0.28258
C         34.04401        39.50639         0.21482
C         35.24402        41.63411        -0.47203
C         33.93949        42.39376        -0.16175
C         35.28329        44.58523        -0.12669
C         33.94566        43.92924        -0.45444
C         35.51145        45.97724        -0.64917
C         37.69911        27.33848        -1.30496
C         36.49282        26.74570        -0.76602
C         37.38528        28.77986        -1.37646
C         36.41631        29.47981        -0.70676
C         37.77239        31.81089        -0.71055
C         36.44765        31.00236        -0.66155
C         37.76815        33.17598        -0.09336
C         36.50070        33.85036         0.29455
C         37.77861        35.99004         0.08015
C         36.51613        35.24542         0.44304
C         37.85840        37.37103         0.74737
C         36.54364        38.12593         0.67709
C         37.87034        40.40958         0.54908
C         36.55786        39.62053         0.66423
C         37.78222        41.63458        -0.41806
C         36.51277        42.42979        -0.21783
C         37.80058        44.58126        -0.67274
C         36.48834        43.80081        -0.83762
C         37.88485        45.97719        -1.36403
C         36.54685        46.56084        -0.97587
C         40.36457        24.73802        -1.62534
C         39.35542        25.45814        -1.47409
C         40.30614        27.66663        -1.76941
C         38.95344        26.81391        -1.49591
C         40.24644        28.87667        -0.81691
C         39.27385        29.92941        -1.29002
C         40.38996        31.82320        -0.28658
C         39.10063        31.11905        -0.66495
C         40.23232        33.02504         0.59442
C         38.93017        33.75673         0.71222
C         40.23932        35.90085         0.51797
C         39.05791        35.24170         0.39372
C         40.36594        37.33820         0.00331
C         39.03081        38.10116         0.10380
C         40.34186        40.32671         0.07281
C         39.05238        39.58465         0.06827
C         40.30725        41.69775        -0.29434
C         39.09074        42.40309        -0.34317
C         40.38460        44.61133        -0.60255
C         39.11613        43.86323        -0.46051
C         40.35140        46.04960        -0.64550
C         39.10568        46.72757        -0.91476
C         40.36718        48.80926        -0.87475
C         39.31785        48.09496        -0.96159
C         42.93104        24.83312        -1.87302
C         41.60256        25.43766        -2.21379
C         42.72500        27.45035        -0.99751
C         41.59925        26.86418        -1.58002
C         42.70205        28.81305        -0.44003
C         41.54437        29.51906        -0.40925
C         42.72342        31.52020         0.64834
C         41.38120        30.82627         0.36117
C         42.73625        32.92965         1.13676
C         41.41207        33.65410         1.14560
C         42.76607        35.85793         0.95243
C         41.44496        35.20632         1.04650
C         42.72845        37.33374         1.01633
C         41.47021        38.09864         0.72440
C         42.85551        40.29345         0.89711
C         41.50641        39.63585         0.65739
C         43.10149        41.75678         0.88333
C         41.50092        42.43015        -0.83477
C         42.83843        44.54119        -0.27713
C         41.62890        43.90044        -0.54828
C         42.88816        46.05469        -0.24488
C         41.57482        46.77506        -0.54451
C         42.97515        48.65018        -0.94370
C         41.62558        48.19737        -0.72757
C         43.90075        25.43648        -1.38426
C         45.20846        27.41130        -0.46936
C         44.00469        26.77079        -0.89242
C         45.23960        28.75448        -0.12117
C         43.93720        29.42816         0.21464
C         45.23772        31.69869         0.11465
C         43.91149        30.95017        -0.10657
C         45.20524        33.21189         0.35504
C         44.06357        33.69756         1.27746
C         45.22721        35.89847         1.17251
C         43.96252        35.19518         1.07674
C         45.19245        37.34432         1.12105
C         44.01936        38.03766         1.01197
C         45.31925        40.13486         0.30751
C         44.00356        39.40829         0.39217
C         45.25134        41.51014        -0.34919
C         44.13552        42.35590         0.23247
C         45.36050        44.41744        -0.58351
C         44.16201        43.87686         0.19342
C         45.29573        45.75186        -1.06134
C         44.00979        46.49850        -1.26717
C         44.02456        48.00728        -1.09985
C         47.69472        28.66630        -1.70283
C         47.65351        28.27671        -2.90769
C         47.74138        29.05773        -0.40439
C         46.50798        29.40808         0.39332
C         47.76761        31.65132         0.70733
C         46.51312        30.94688         0.28174
C         47.70566        33.06516         1.02335
C         46.50532        33.80023         0.92284
C         47.66943        35.88118         1.86571
C         46.44930        35.19093         1.24230
C         47.69211        37.41633         1.59678
C         46.44468        38.13470         1.21669
C         47.78552        40.18280         0.48765
C         46.48833        39.50346         0.61405
C         47.75214        41.56458        -0.00377
C         46.58149        42.23017        -0.27556
C         47.77377        44.21198        -1.15867
C         46.56510        43.65248        -0.65438
C         47.62805        45.52871        -1.61217
C         46.53607        46.16561        -1.55848
C         50.28056        29.26596        -0.55640
C         49.02255        29.45767         0.27378
C         50.22453        31.69024         0.85150
C         48.97979        30.98273         0.60541
C         50.18095        33.00885         1.35291
C         48.94971        33.75879         1.35114
C         50.21264        35.89395         1.30848
C         48.95406        35.15913         1.52606
C         50.27020        37.39978         1.42596
C         48.98419        38.17530         1.43042
C         50.26149        40.35764         0.96648
C         48.95819        39.56359         0.88772
C         50.27838        41.41018        -0.16590
C         49.05556        42.35483        -0.08751
C         50.33833        44.02564        -1.31656
C         48.98214        43.34101        -1.30196
C         51.33337        29.80661        -0.11997
C         52.60348        31.80308         0.98132
C         51.50153        31.03731         0.53527
C         52.61746        32.85108         1.65321
C         51.42356        33.71917         1.95256
C         52.66665        36.01975         1.57791
C         51.52846        35.10813         1.38152
C         52.63874        37.21758         1.21666
C         51.54752        38.12739         1.11365
C         52.66208        40.31224         0.64394
C         51.55404        39.48757         0.92039
C         52.70497        41.53103         0.27025
C         51.65118        42.28524        -0.19978
C         51.37210        43.49034        -0.85501
O         46.91322        38.13088         2.62518
O         35.74572        40.27404         1.68851
O         33.42463        38.11851         2.18218
O         41.19485        34.50561         2.31762
O         49.76185        37.98227         2.67614
O         38.71933        38.79891        -1.13103
O         38.29433        44.54170         0.66575
O         38.26767        29.51809        -2.15885
O         37.64582        36.26305        -1.39396
O         42.83687        31.78231         2.06567
O         42.22186        41.88247        -1.66962
O         34.17746        31.44592         2.26437
O         32.24150        35.49572         2.52085
O         41.71879        37.66731         2.08025
O         41.99874        40.02226         2.03581
O         35.28082        31.53466        -1.36250
O         31.94087        33.21122        -0.24085
O         46.10771        31.41397        -1.04733
O         50.91276        35.34840         0.10854
O         37.86027        33.02523        -1.55482
O         38.15588        37.15510         2.14242
H         38.07422        38.00466         2.62502
O         38.49102        33.65976         2.10295
H         39.20917        34.05415         2.65329
O         43.63370        39.10618        -0.99566
H         44.11707        39.73667        -1.59109
O         36.25394        43.73121        -2.29316
H         35.32245        44.03108        -2.46910
O         44.37226        44.30788         1.56327
H         43.69090        43.86056         2.11261
O         37.77459        41.09213        -1.77197
H         37.62155        41.83847        -2.39046
O         44.53105        33.49391         2.62504
H         43.78354        33.63564         3.24260
O         34.09028        28.98001        -1.17509
H         34.38430        28.69256        -2.06367
O         46.66961        29.11312         1.79059
H         46.74726        28.14300         1.89871
O         50.27354        40.65700        -1.36356
H         49.97588        41.22738        -2.11344
O         42.23469        42.48044         1.65282
H         41.68390        41.80840         2.13799
O         43.58483        31.11243        -1.49549
H         44.41485        30.99430        -2.01080
O         37.97703        45.79781        -2.76585
H         37.25031        45.18649        -3.03617
O         50.26759        41.02233         2.24656
H         50.14057        40.33770         2.94123
O         41.40503        25.55110        -3.60537
H         41.28508        24.65768        -3.98914
O         31.57654        42.18356         2.13783
H         30.86544        42.69408         2.57476
O         44.97470        41.30300        -1.78287
H         44.09894        41.71848        -1.98646
O         44.95940        33.81761        -0.93059
H         45.52126        33.34782        -1.58684
O         35.46435        44.53430         1.26512
H         36.37798        44.82171         1.48290
O         43.54871        46.19814        -2.57774
H         44.22644        46.47559        -3.22841
O         43.76222        29.32356         1.65588
H         43.91106        28.39233         1.92075
O         46.34239        26.66086        -0.44359
H         46.16185        25.80237        -0.88252
O         43.34943        46.53715         1.02998
H         42.75051        46.20784         1.73035
O         38.67685        35.54755        -2.10941
H         38.22693        34.70010        -2.36937
O         40.28256        28.11689        -3.11846
H         40.57485        27.37286        -3.69435
O         35.15989        41.24755        -1.89060
H         35.51765        42.00738        -2.41210
O         49.16738        43.18562         1.07180
H         49.41732        42.61973         1.84140
O         38.21257        40.88200         1.86081
H         37.37730        41.18373         2.28820
O         39.65522        28.36846         0.41509
H         39.88864        29.00001         1.14488
O         40.76891        30.47069         1.62652
H         41.43158        30.67303         2.33447
O         51.24817        33.86658         3.35566
H         51.15769        32.98193         3.76572
O         49.19391        28.74247         1.49481
H         49.39555        27.80793         1.28228
O         35.65078        29.15883         2.05860
H         35.37695        29.63258         2.87371
O         32.71796        40.12716        -1.67666
H         33.57112        40.50020        -2.02655
O         48.86058        42.59636        -2.51926
H         48.67649        43.21764        -3.25528
O         33.70012        44.08235        -1.86198
H         32.78133        43.79702        -2.05511
O         40.77714        37.26316        -1.36656
H         39.99506        37.01745        -1.91377
O         47.49038        35.71297         3.29756
H         46.97730        36.49222         3.61686
O         40.98584        32.30052        -1.52711
H         40.27900        32.72911        -2.05705
