         424
 CSIRO Nanostructure Databank - Neutral Graphene Oxide Data Set
C          1.20990         3.45109         0.24750
C          0.00798         4.13336         0.18228
C          1.17057         6.26009        -0.15243
C         -0.01604         5.52345        -0.01896
C          1.16796         7.70325        -0.37369
C         -0.02607         8.41211        -0.55203
C          1.17090        10.51886        -0.77521
C         -0.01860         9.79357        -0.76750
C          1.12595        12.00183        -1.06393
C          0.02379        12.71097        -0.29286
C          1.41224        14.73761         0.16950
C          0.11982        13.95972         0.17711
C          1.27837        16.24410        -0.02473
C          0.09908        16.94935         0.22760
C          1.22697        19.07267        -0.17060
C          0.06523        18.34348         0.13172
C          1.21729        20.54115        -0.27789
C          0.01574        21.24013        -0.48713
C          1.22088        23.35173        -0.52111
C          0.02259        22.62448        -0.60208
C          1.20691        24.82243        -0.69663
C         -0.03226        25.59125        -0.53504
C          1.21116        27.68366        -0.13360
C         -0.00961        26.93697        -0.38362
C          1.15320        29.09993         0.07147
C         -0.01174        29.87086        -0.19068
C          1.09349        32.00804         0.43704
C         -0.03667        31.24308        -0.12020
C          1.15264        33.49291         0.12515
C         -0.06291        34.26409         0.57730
C          1.22874        36.33601         0.53848
C         -0.01896        35.61132         0.67987
C          1.26447        37.74097         0.51313
C          3.67441         3.47144         0.17202
C          2.43819         4.15487         0.12004
C          3.65120         6.29006        -0.18485
C          2.41909         5.57511        -0.07090
C          3.64843         7.71741        -0.35319
C          2.40621         8.41708        -0.43971
C          3.65458        10.54795        -0.67418
C          2.40882         9.83598        -0.62274
C          3.64353        12.00094        -0.76662
C          2.45526        12.68838        -0.86482
C          3.71848        14.87475        -0.70492
C          2.39033        14.19171        -0.88789
C          3.71322        16.25558        -0.55694
C          2.45277        16.96908        -0.35304
C          3.68745        19.16744        -0.69096
C          2.43431        18.37422        -0.38623
C          3.68257        20.47381         0.10842
C          2.42805        21.26031        -0.19362
C          3.70474        23.40105        -0.12826
C          2.44674        22.66851        -0.30257
C          3.72098        24.79965        -0.04985
C          2.51693        25.58351        -0.39372
C          3.55426        27.51934         0.84929
C          2.42119        26.98115         0.00702
C          3.55560        29.04594         0.92238
C          2.46649        29.82457         0.19094
C          3.66102        31.99590         0.76158
C          2.36762        31.26096         0.68503
C          3.64475        33.45823         0.72081
C          2.44548        34.17193         0.52551
C          3.69312        36.30549         0.55469
C          2.45684        35.59657         0.52959
C          3.70773        37.74069         0.50178
C          2.47249        38.43258         0.46916
C          6.13211         3.47204         0.07433
C          4.88883         4.16098         0.03584
C          6.11645         6.29624        -0.27209
C          4.88069         5.59050        -0.13543
C          6.11751         7.71432        -0.42882
C          4.87585         8.42450        -0.45956
C          6.14050        10.55472        -0.67362
C          4.87778         9.85148        -0.60467
C          6.13951        11.99403        -0.70010
C          4.91888        12.71009        -0.72664
C          6.17457        14.84008        -0.64229
C          4.93552        14.13214        -0.71387
C          6.17823        16.26220        -0.55711
C          4.95242        16.98509        -0.52278
C          6.18703        19.09422        -0.30191
C          4.96469        18.39338        -0.46282
C          6.17624        20.54851        -0.14210
C          4.96614        21.24966        -0.07559
C          6.17411        23.38767         0.06777
C          4.93957        22.67103        -0.02069
C          6.16812        24.80263         0.23088
C          4.93323        25.52014         0.23832
C          6.12741        27.64078         0.67920
C          4.90961        26.91297         0.51339
C          6.12367        29.06906         0.90572
C          4.84332        29.79447         1.05456
C          6.09397        31.96003         1.19200
C          4.82238        31.27772         0.90147
C          6.11718        33.47974         1.16095
C          4.86790        34.18284         0.82712
C          6.17607        36.29317         0.63763
C          4.91130        35.58219         0.65394
C          6.17329        37.74217         0.57026
C          4.94927        38.42773         0.50937
C          8.58160         3.45710         0.03778
C          7.34373         4.14745        -0.08331
C          8.55880         6.28232        -0.48956
C          7.34741         5.58489        -0.27919
C          8.56578         7.67495        -0.64722
C          7.35252         8.40800        -0.59249
C          8.62212        10.55326        -0.76804
C          7.35734         9.84655        -0.69927
C          8.61934        11.98303        -0.72346
C          7.38715        12.70086        -0.68886
C          8.64113        14.85096        -0.69728
C          7.40172        14.12388        -0.65706
C          8.63381        16.26524        -0.67139
C          7.41350        16.97839        -0.52096
C          8.69643        19.07259         0.05611
C          7.40701        18.38825        -0.32744
C          8.66203        20.56816        -0.10691
C          7.42839        21.25716        -0.08277
C          8.64111        23.39069         0.19707
C          7.41205        22.68113         0.03904
C          8.61663        24.78061         0.45039
C          7.39564        25.50354         0.44034
C          8.63229        27.62656         0.65987
C          7.37145        26.92773         0.60261
C          8.60329        29.11157         0.57742
C          7.32639        29.82602         0.84711
C          8.59401        32.00563         1.15018
C          7.34549        31.21781         1.01015
C          8.57815        33.46089         0.89000
C          7.40147        34.16330         0.87860
C          8.65354        36.30533         0.66378
C          7.38458        35.59787         0.66524
C          8.64322        37.76738         0.64078
C          7.41219        38.43809         0.58396
C         11.00449         3.47885         0.25194
C          9.80657         4.11705        -0.09351
C         11.07117         6.29625        -0.30207
C          9.84023         5.50750        -0.68858
C         11.08225         7.68124        -0.51639
C          9.84728         8.35873        -1.07445
C         11.08707        10.55114        -0.83445
C          9.84452         9.85147        -0.84399
C         11.07387        11.97267        -0.84416
C          9.85896        12.70018        -0.76676
C         11.12197        14.86019        -0.75206
C          9.87490        14.13267        -0.75879
C         11.14465        16.27920        -0.81608
C          9.86320        17.03126        -1.07058
C         11.08648        19.15480        -0.69673
C          9.92711        18.45061        -0.55464
C         11.13322        20.58545        -0.40322
C          9.89290        21.27933        -0.12450
C         11.13156        23.40617         0.10039
C          9.88932        22.68628         0.07062
C         11.14825        24.79988         0.38310
C          9.88111        25.46020         0.89248
C         11.12844        27.64434         0.84570
C          9.83398        26.94907         0.67587
C         11.16243        29.13818         0.93819
C          9.88476        29.86202         0.68664
C         11.16382        32.04301         0.74886
C          9.91020        31.30669         1.05456
C         11.13895        33.42347         0.64285
C          9.83141        34.13509         0.37635
C         11.13810        36.31692         0.96673
C          9.84160        35.60895         0.67175
C         11.11415        37.77576         0.56400
C          9.87797        38.45423         0.54582
C         13.39475         3.54355         0.78258
C         12.23348         4.18540         0.35482
C         13.46204         6.34043         0.22321
C         12.24517         5.61973         0.10268
C         13.49020         7.71502        -0.10517
C         12.30155         8.40407        -0.43437
C         13.57461        10.51991        -0.58964
C         12.33792         9.83362        -0.69525
C         13.64013        11.95989        -0.88211
C         12.32661        12.71752        -1.01224
C         13.58661        14.86452        -0.74746
C         12.35290        14.16834        -0.79887
C         13.58875        16.29071        -0.75023
C         12.35319        16.98107        -0.85052
C         13.61323        19.16403        -1.18932
C         12.27492        18.42436        -1.32777
C         13.60462        20.66258        -0.88130
C         12.32476        21.31133        -0.48636
C         13.58213        23.43322        -0.16580
C         12.34865        22.71044        -0.17157
C         13.56842        24.82166         0.01904
C         12.36186        25.51110         0.32059
C         13.56337        27.68762         0.46142
C         12.39360        26.95823         0.53034
C         13.59249        29.14299         0.44060
C         12.40292        29.87394         0.64446
C         13.59698        32.00218         0.36078
C         12.39078        31.30165         0.59393
C         13.59421        33.43727         0.34021
C         12.36095        34.15510         0.48557
C         13.56318        36.27455         0.29084
C         12.36853        35.57226         0.50397
C         13.56517        37.72694         0.25296
C         12.32440        38.43159         0.34498
C         15.67650         3.65729         1.66766
C         14.60131         4.26903         1.05053
C         15.86572         6.38347         0.81415
C         14.65742         5.67879         0.69327
C         15.96970         7.74987         0.38574
C         14.81833         8.37259        -0.34437
C         16.00045        10.58252        -0.07066
C         14.78453         9.86922        -0.25937
C         16.02765        12.01754        -0.19865
C         14.84793        12.72576        -0.53427
C         16.05387        14.86474        -0.45007
C         14.82757        14.13667        -0.60677
C         16.06621        16.28224        -0.61926
C         14.85091        17.01852        -0.74971
C         16.14040        19.19672        -1.10460
C         14.85143        18.42234        -0.92698
C         16.10602        20.62709        -0.57606
C         14.87264        21.33870        -0.51900
C         16.08529        23.43843        -0.17396
C         14.85352        22.72404        -0.28184
C         16.10038        24.85769        -0.07499
C         14.81351        25.62586        -0.26429
C         16.07449        27.72351         0.08517
C         14.86579        26.93238         0.51886
C         16.02366        29.11864        -0.10446
C         14.78348        29.83774         0.09065
C         15.97538        31.97048        -0.29925
C         14.80594        31.27303         0.04419
C         16.10849        33.39057         0.18734
C         14.80158        34.14789         0.16375
C         16.01658        36.27971        -0.09698
C         14.79421        35.55927         0.10666
C         15.99939        37.70985        -0.13579
C         14.76555        38.40482         0.04818
C         18.10452         3.69166         2.34598
C         16.82234         4.46742         2.19354
C         18.24322         6.37790         1.40809
C         17.01543         5.75148         1.42030
C         18.43686         7.68541         0.67353
C         17.15780         8.46498         0.50269
C         18.42375        10.60588         0.50421
C         17.19974         9.88073         0.27959
C         18.45010        12.02008         0.36384
C         17.24344        12.74245         0.01160
C         18.44067        14.92781         0.32362
C         17.24285        14.14394        -0.12999
C         18.57423        16.27980        -0.31402
C         17.38534        16.95525        -0.94632
C         18.53637        19.09803        -0.41015
C         17.37659        18.44203        -0.67617
C         18.56780        20.54154         0.01595
C         17.30161        21.29614        -0.30954
C         18.54886        23.44105        -0.14575
C         17.32618        22.72303        -0.17035
C         18.55459        24.86228        -0.09442
C         17.30061        25.56283         0.00187
C         18.48635        27.74505        -0.24879
C         17.29096        27.02553        -0.02811
C         18.41750        29.11494        -0.57357
C         17.19504        29.80200        -0.52315
C         18.42659        31.98195        -0.83423
C         17.11469        31.24600        -0.97331
C         18.39945        33.46844        -1.06746
C         17.23888        34.16657        -0.41454
C         18.44681        36.30531        -0.62259
C         17.23158        35.56317        -0.36997
C         18.42057        37.73047        -0.59413
C         17.19638        38.41206        -0.37714
C         19.30259         4.31676         2.30480
C         20.59070         6.43765         2.09285
C         19.40821         5.71867         1.94483
C         20.64853         7.82184         1.80194
C         19.59501         8.49687         1.19404
C         20.80863        10.64894         1.10323
C         19.61176         9.90711         0.92990
C         20.85361        12.00544         0.88204
C         19.68150        12.73810         0.53888
C         20.93578        14.88319         0.42008
C         19.72865        14.14841         0.36810
C         20.95768        16.24869         0.21256
C         19.77638        16.95006        -0.20743
C         20.96700        19.10747        -0.62760
C         19.81537        18.39299        -0.42436
C         20.95723        20.54769        -0.65745
C         19.83435        21.26287        -0.38155
C         20.96983        23.51671        -0.72559
C         19.88180        22.73616        -0.04728
C         20.92555        24.88284        -0.71736
C         19.77032        25.58739        -0.27076
C         20.97687        27.82299        -0.54881
C         19.80740        27.06850         0.03457
C         20.89547        29.07526        -1.01475
C         19.59941        29.81856        -1.19876
C         20.85185        32.01928        -0.73285
C         19.63035        31.29988        -0.85560
C         20.86443        33.41428        -0.63478
C         19.70096        34.17048        -0.78148
C         20.87257        36.37368        -0.89306
C         19.69048        35.61710        -0.76251
C         20.83722        37.77496        -0.90489
C         19.63546        38.45220        -0.76014
O          3.95237        29.47137         2.24460
O          9.37324        31.61582         2.37794
O          2.06015        25.30727        -1.76985
O         12.03559        18.29318        -2.72149
O         11.19218        28.34753         2.17460
O         13.72772        20.17915        -2.26228
O          1.46532        31.56561         1.78927
O          9.31002        29.61589        -0.63666
O          6.06685        32.76445         2.43675
O         13.09656        12.29983        -2.19987
O          0.76422        12.13256        -2.47583
H          0.82150        13.09802        -2.68034
O         20.21445        22.75821         1.41280
H         20.20899        23.70234         1.68699
O          9.92517        25.29477         2.36379
H         10.54383        25.97165         2.71668
O          9.71596        17.12625        -2.52145
H         10.56961        17.57573        -2.85079
O         19.32105        29.80507        -2.65111
H         19.33801        28.86858        -2.94338
O         15.06117        26.56761         1.91619
H         14.99810        27.38274         2.45639
O          3.25906        27.02693         2.19694
H          3.58031        27.72610         2.81801
O          8.82907        18.83869         1.51455
H          8.07542        19.28929         1.95258
O          2.99441        29.92309        -1.17792
H          2.28224        30.27244        -1.75546
O         11.24522        36.31770         2.43990
H         10.47531        36.81715         2.78707
O         15.11598         8.08438        -1.78216
H         14.43557         8.55410        -2.31277
O         16.43667         4.87066         3.56922
H         17.17749         5.40509         3.92734
O          3.66785        19.54049        -2.09627
H          3.68818        18.72013        -2.63146
O         14.74173        25.99239        -1.67480
H         14.68682        25.16660        -2.20016
O          2.04526        14.53318         1.46049
H          1.46848        14.92406         2.14892
O          9.71910        34.03996        -1.10372
H          8.96764        34.60853        -1.37858
O         16.28935        19.32613        -2.57080
H         15.42354        19.68550        -2.89802
O         16.83442        31.20799        -2.43495
H         17.57392        30.67433        -2.82450
O          9.95015         5.32448        -2.15325
H         10.75208         4.78364        -2.31929
O         18.17110        33.61259        -2.53493
H         17.52583        32.90071        -2.78612
O          3.63234        20.08982         1.51452
H          3.59835        20.90937         2.05082
O         18.13978        15.23111         1.75941
H         18.89786        15.75234         2.10340
O         19.98394        27.14754         1.49903
H         19.89272        28.08982         1.75529
O         18.59485        20.49327         1.48861
H         19.09999        21.28697         1.79600
O          1.13300        33.52550        -1.34871
H          1.12728        34.46847        -1.61990
O         17.51327        16.78938        -2.40097
H         17.05109        17.56064        -2.81552
O         16.45426        33.26644         1.64521
H         15.62638        33.03915         2.12168
O          1.85987        14.61025        -2.19026
H          2.56751        14.47222        -2.85508
O         18.82871         7.32153        -0.70508
H         18.02600         6.97976        -1.15540
O          9.92361         8.17038        -2.52920
H          9.89417         7.19275        -2.68462
H          1.22756         2.36213         0.39732
H         -0.94077         3.58794         0.28381
H         -0.99135         6.02575        -0.06767
H         -0.99174         7.88968        -0.54371
H         -0.97490        10.30462        -0.94352
H         -0.94077        12.18653        -0.20637
H         -0.74691        14.40297         0.69450
H         -0.82338        16.41452         0.49417
H         -0.88157        18.86609         0.32577
H         -0.93388        20.69731        -0.58553
H         -0.92643        23.14411        -0.78869
H         -0.99906        25.06918        -0.54569
H         -0.96800        27.46840        -0.31204
H         -0.92751        29.35979        -0.52022
H         -0.93379        31.78845        -0.44574
H         -1.01313        33.72528         0.70434
H         -0.92923        36.18448         0.91296
H          0.31730        38.29985         0.53020
H          3.68276         2.38017         0.31138
H          2.47390        39.53170         0.44179
H          6.13491         2.38257         0.22808
H          4.95017        39.52740         0.47255
H          8.57062         2.39946         0.34349
H          7.40254        39.53732         0.53461
H         10.97512         2.42350         0.56441
H          9.86858        39.54149         0.37322
H         13.36332         2.46754         1.00998
H         12.32743        39.52146         0.18806
H         15.62157         2.58925         1.92825
H         14.76693        39.50406         0.00381
H         18.03930         2.62718         2.61709
H         17.18505        39.51225        -0.38495
H         20.23114         3.76578         2.51935
H         21.47585         5.94428         2.51969
H         21.55591         8.36400         2.10346
H         21.73436        10.13303         1.38963
H         21.81068        12.52672         1.01110
H         21.88895        14.36940         0.60498
H         21.90805        16.79342         0.29201
H         21.93225        18.59535        -0.74311
H         21.91660        21.05435        -0.83604
H         21.87482        23.00561        -1.08063
H         21.79369        25.44770        -1.08700
H         21.97066        27.35644        -0.46680
H         21.80904        29.56166        -1.39070
H         21.80634        31.47744        -0.69575
H         21.82838        33.91735        -0.46827
H         21.83868        35.86630        -1.02274
H         21.77296        38.33794        -1.02841
H         19.61317        39.55149        -0.75455
