         621
 CSIRO Nanostructure Databank - Neutral Graphene Oxide Data Set
C          5.60442        31.73549        -0.60894
C          5.76460        33.08858        -0.78876
C          8.34108        27.53997        -0.30359
C          8.25886        28.88774        -0.68255
C          7.00136        29.57447        -0.39739
C          8.40278        31.80973        -1.44991
C          6.60567        30.75432        -0.98471
C          8.26865        33.13005        -1.07568
C          7.00011        33.82758        -1.02109
C          8.21298        36.01097        -0.95073
C          7.00855        35.22582        -0.99204
C          8.25813        37.37934        -1.15212
C         10.73787        23.21787         0.12858
C         10.74246        24.58087        -0.20467
C          9.54807        25.38638        -0.14040
C         10.66925        27.38799        -1.16974
C          9.50994        26.73875        -0.45302
C         10.74135        28.89564        -0.94611
C          9.49352        29.60367        -1.03473
C         10.78634        31.73319        -0.99312
C          9.55887        31.01575        -1.15601
C         10.78203        33.14641        -0.85116
C          9.49273        33.82212        -0.64718
C         10.76080        36.04102        -0.73963
C          9.47719        35.32902        -0.59634
C         10.73345        37.44962        -0.72784
C          9.46419        38.15347        -0.95442
C         10.53757        40.35159        -0.59381
C          9.43148        39.53289        -1.10138
C         10.65032        41.81165        -0.78533
C         13.29215        18.94210         0.84506
C         13.25245        20.35631         0.64972
C         12.00940        21.08615         0.52352
C         13.20066        23.23515         0.28345
C         11.94414        22.46056         0.29622
C         13.19896        24.60557        -0.27688
C         11.99459        25.23793        -0.54494
C         13.26932        27.42503        -0.78787
C         11.99162        26.64965        -0.98711
C         13.18434        28.86717        -0.35527
C         11.95393        29.58556        -0.85289
C         13.22605        31.74817        -0.82700
C         12.00498        31.01556        -0.87764
C         13.22171        33.16916        -0.89680
C         11.98400        33.88211        -0.82683
C         13.21021        36.05601        -0.98548
C         11.98672        35.33028        -0.79927
C         13.19023        37.47494        -0.91262
C         11.96546        38.15864        -0.64394
C         12.99452        40.43906        -0.05977
C         11.81682        39.58598        -0.24970
C         13.08057        41.75712        -0.36782
C         11.85219        42.50995        -0.62666
C         13.12888        44.65630        -0.32897
C         11.93213        43.93895        -0.59934
C         13.15273        46.03856        -0.14094
C         15.84357        14.65394         1.15365
C         15.80613        16.06384         1.09619
C         14.46944        16.76278         1.26162
C         15.73903        18.94177         0.86621
C         14.49387        18.24932         0.95943
C         15.73553        20.34443         0.63777
C         14.49263        21.02747         0.55079
C         15.73470        23.10334        -0.22811
C         14.49934        22.48936         0.42620
C         15.69126        24.60114         0.03976
C         14.44706        25.32567        -0.26643
C         15.72595        27.45000        -0.34698
C         14.48739        26.70328        -0.38391
C         15.68321        28.90300        -0.41569
C         14.49367        29.60748        -0.50574
C         15.66712        31.76635        -0.70748
C         14.47988        31.04462        -0.65237
C         15.68407        33.14181        -1.22517
C         14.43682        33.91166        -1.08817
C         15.71572        35.99273        -1.42404
C         14.45165        35.31003        -1.18010
C         15.64302        37.42114        -1.79443
C         14.39909        38.23829        -1.44710
C         15.80772        40.27781        -1.06863
C         14.87821        39.41145        -0.61449
C         15.69951        41.75704        -0.86709
C         14.39138        42.44826        -0.56968
C         15.71718        44.59546        -0.14907
C         14.40396        43.88906        -0.15248
C         15.72819        46.08626        -0.30955
C         14.40265        46.82822        -0.15335
C         15.72652        48.87296         0.47943
C         14.49919        48.20365         0.33196
C         15.78449        50.24226         0.86077
C         18.27163        10.28417         1.34813
C         17.95477        11.55795         0.84761
C         16.94878        12.46900         1.25026
C         18.29603        14.60932         0.76784
C         17.01390        13.87523         1.01941
C         18.27543        16.11985         0.85449
C         16.98921        16.81523         1.00750
C         18.22746        18.95313         0.91951
C         16.99470        18.24289         0.96309
C         18.22576        20.37298         0.76274
C         16.99089        21.05970         0.57460
C         18.21368        23.15092         0.24684
C         17.01097        22.45305         0.28159
C         18.22938        24.54297        -0.27241
C         16.98610        25.34671        -0.08785
C         18.20939        27.52375        -0.54648
C         16.94556        26.79001        -0.34019
C         18.24363        28.96858        -0.23398
C         16.93021        29.63495        -0.12148
C         18.18241        31.92359        -0.22813
C         16.89653        31.15918        -0.21667
C         18.24491        33.26059        -0.81402
C         17.02693        33.89340        -1.31592
C         18.22277        36.09830        -1.52535
C         16.95685        35.36608        -1.41254
C         18.19734        37.49554        -1.76446
C         16.93006        38.21076        -1.98390
C         18.20994        40.40943        -1.51007
C         16.90371        39.76764        -1.98179
C         18.16942        41.75078        -0.96813
C         16.99221        42.47645        -0.71533
C         18.17105        44.64129        -0.41232
C         16.99657        43.88228        -0.42707
C         18.20512        46.06887        -0.15801
C         16.99336        46.78990        -0.00668
C         18.22422        48.84674         0.50216
C         16.98559        48.16335         0.30243
C         18.24685        50.22675         0.88856
C         17.00737        50.92641         1.06679
C         18.23972        52.96740         1.71559
C         17.03498        52.30305         1.44309
C         18.29571        54.37651         1.98147
C         20.89048         6.12143         1.13983
C         20.85150         7.50963         1.35157
C         19.60627         8.23390         1.32335
C         20.87348        10.34588         0.80938
C         19.52501         9.60980         1.17807
C         20.81183        11.80828         1.26478
C         19.79089        12.67864         0.67695
C         20.71433        14.67201         1.75029
C         19.59067        13.95009         1.10513
C         20.70484        16.19810         1.66985
C         19.50236        16.87814         1.17819
C         20.73456        19.00443         1.21676
C         19.48739        18.26372         1.10668
C         20.71073        20.40510         0.95874
C         19.46577        21.08666         0.73855
C         20.68834        23.21146         0.42782
C         19.46338        22.49731         0.50462
C         20.71274        24.71520         0.34802
C         19.51798        25.27424        -0.39893
C         20.76317        27.46527        -0.27141
C         19.51184        26.76465        -0.54753
C         20.77942        28.94100        -0.00954
C         19.43342        29.64218        -0.16809
C         20.77652        31.80286        -0.33803
C         19.47244        31.11386        -0.04490
C         20.75433        33.30652        -0.49409
C         19.42842        34.12921        -0.42688
C         20.71348        36.24987        -1.13955
C         19.45486        35.43587        -1.22732
C         20.73708        37.53639        -1.97943
C         19.43020        38.27667        -1.97389
C         20.67157        40.38263        -1.33436
C         19.41938        39.73467        -1.66530
C         20.70916        41.74404        -0.99420
C         19.44277        42.41128        -0.65928
C         20.68845        44.65479        -0.76146
C         19.44324        43.91056        -0.43294
C         20.71228        46.12547        -0.45146
C         19.43933        46.78566        -0.04717
C         20.74699        48.91465         0.23631
C         19.44261        48.14424         0.28338
C         20.72948        50.20820         1.02287
C         19.49079        50.88871         1.17134
C         20.70075        52.88264         1.97939
C         19.48304        52.24269         1.62748
C         20.68765        54.22414         2.48232
C         19.49247        55.02693         2.27778
C         20.70339        57.19253         1.84739
C         19.55857        56.47189         2.13771
C         20.75650        58.61286         1.63548
C         23.45271         3.49062         0.33191
C         22.20514         4.12107         0.48824
C         23.34333         6.01492         1.56806
C         22.10838         5.40146         1.05599
C         23.31231         7.54461         1.85581
C         22.07088         8.24949         1.53696
C         23.28579        10.34883         1.72955
C         22.08148         9.64574         1.44769
C         23.27287        11.79221         1.99830
C         22.00228        12.53719         1.82688
C         23.23048        14.72943         1.73490
C         22.02698        14.00273         1.76829
C         23.18882        16.18386         1.70755
C         22.00040        16.90435         1.64986
C         23.18699        19.09989         1.52252
C         21.97265        18.34388         1.47462
C         23.15999        20.45863         1.16178
C         21.94131        21.11769         0.86780
C         23.11821        23.19793         0.15394
C         21.92204        22.53352         0.51226
C         23.20553        24.58660        -0.21225
C         21.99308        25.34899        -0.13569
C         23.19442        27.46883        -0.67386
C         21.97679        26.75308        -0.32502
C         23.13152        28.81131        -0.99013
C         21.93661        29.61633        -0.73011
C         23.09185        31.73150        -1.35827
C         21.91607        30.98565        -0.85688
C         23.12979        33.20200        -1.17058
C         21.98313        33.92586        -1.03698
C         23.24644        35.70635        -2.08134
C         22.14079        35.43450        -1.05726
C         23.21896        37.84314        -2.19243
C         21.97323        38.36870        -1.86168
C         23.15780        40.34568        -1.12708
C         21.92271        39.70142        -1.42127
C         23.16964        41.72169        -0.78570
C         21.93757        42.41850        -0.81182
C         23.26770        44.57779        -0.47073
C         21.97043        43.88666        -0.82216
C         23.16576        45.96346         0.03969
C         22.00465        46.69091        -0.00008
C         23.18552        48.70844         1.05015
C         21.92256        48.03796         0.61409
C         23.21308        50.16495         1.28145
C         21.93715        50.82770         1.42025
C         23.16345        52.82660         2.21255
C         21.93215        52.16629         1.91598
C         23.16156        54.15501         2.74318
C         21.86472        54.70450         3.10857
C         23.12452        57.14848         2.52589
C         22.05278        56.55889         1.63968
C         23.14817        58.63903         2.32781
C         21.97444        59.30172         1.67912
C         23.33592        61.33411         1.55978
C         22.11630        60.68092         1.38329
C         24.64610         4.12174         0.67039
C         25.82395         6.15399         1.45327
C         24.64930         5.42011         1.24393
C         25.81937         7.55740         1.69633
C         24.58157         8.26968         1.78924
C         25.78176        10.43482         1.73349
C         24.54173         9.67777         1.80080
C         25.78149        11.81609         1.64569
C         24.56448        12.59343         1.89910
C         25.70667        14.77796         1.42408
C         24.49812        14.05201         1.64835
C         25.71524        16.16952         1.55231
C         24.47301        16.89561         1.87715
C         25.78106        19.17083         1.72668
C         24.46163        18.43286         1.91156
C         25.74452        20.57298         1.17994
C         24.40252        21.33006         1.17108
C         25.54837        22.98116        -0.46437
C         24.28740        22.29031        -0.01832
C         25.74042        24.48314        -0.51403
C         24.41694        25.21803        -0.57608
C         25.70445        27.27585        -1.30296
C         24.51345        26.72598        -0.52452
C         25.63380        28.71667        -1.68642
C         24.32832        29.46224        -1.58923
C         25.65784        31.63268        -1.55005
C         24.35507        30.96404        -1.66169
C         25.70548        33.08584        -1.35722
C         24.45765        33.88697        -1.19714
C         25.75654        36.03165        -2.13408
C         24.48730        35.24724        -1.78035
C         25.68195        37.48882        -1.58775
C         24.44838        38.28839        -1.64476
C         25.54015        40.22421        -0.56857
C         24.38334        39.61303        -1.12690
C         25.57941        41.56080        -0.15201
C         24.39643        42.35456        -0.36244
C         25.66048        44.34109         0.25518
C         24.43493        43.73598        -0.11226
C         25.70570        45.81323         0.15198
C         24.44486        46.54362         0.50714
C         25.72902        48.78251         0.66499
C         24.48390        47.98346         0.90316
C         25.72360        50.27723         0.99040
C         24.41018        50.81178         1.52482
C         25.62265        52.86961         2.19151
C         24.41023        52.17648         1.97716
C         25.60110        54.25528         2.47192
C         24.36901        54.90640         2.72118
C         25.64484        57.12564         2.67640
C         24.36901        56.38930         3.04447
C         25.63205        58.53450         2.52707
C         24.46769        59.30876         2.34864
C         24.49614        60.67146         1.99951
C         27.03096         8.30064         1.67271
C         28.26116        10.43107         1.59925
C         27.04365         9.70522         1.66009
C         28.29762        11.83124         1.42932
C         27.00254        12.53413         1.23749
C         28.29952        14.76543         0.92810
C         26.96209        14.02466         1.07632
C         28.28619        16.13409         1.57542
C         27.00468        16.88849         1.68133
C         28.17790        18.93613         0.66331
C         27.05288        18.38943         1.53329
C         28.20497        20.34225         0.22504
C         26.88144        21.03298         0.31101
C         28.44645        23.06414        -1.11423
C         26.56234        22.09609        -0.65785
C         28.24663        24.45394        -1.20547
C         26.84227        25.02397        -1.49698
C         28.13032        27.24661        -1.86772
C         26.85162        26.55984        -1.48477
C         28.15464        28.79373        -1.89204
C         26.88356        29.50264        -1.70769
C         28.11408        31.64452        -1.34527
C         26.85273        30.89941        -1.58138
C         28.12557        33.11056        -1.53157
C         26.96595        33.82597        -1.59657
C         28.10004        35.94440        -1.17263
C         26.97770        35.29100        -1.59695
C         28.18495        37.45002        -1.16486
C         26.78220        38.03647        -0.96315
C         27.78802        39.89668         0.52834
C         26.63405        39.32051        -0.24198
C         27.94006        41.36752         0.65681
C         26.81013        42.15337         0.37411
C         28.05609        44.29801         0.81548
C         26.83895        43.60181         0.48556
C         28.12790        45.68912         0.83713
C         27.00345        46.52008         0.39302
C         28.24819        48.65080         1.16983
C         27.02251        48.02412         0.60396
C         28.27634        50.04572         1.48988
C         26.96195        50.70307         1.77189
C         28.17487        52.90187         2.16164
C         26.91434        52.13752         2.21704
C         28.08774        54.31139         2.31386
C         26.86842        54.98780         2.48912
C         26.83721        56.40691         2.56351
C         29.48948        12.56166         1.47648
C         30.75048        14.65630         1.44932
C         29.54902        13.98368         1.34551
C         30.85627        16.12710         1.34584
C         29.57255        16.90965         1.42141
C         30.74340        18.93312         0.43817
C         29.49700        18.18905         0.66165
C         30.70748        20.31147         0.13350
C         29.41613        21.00422        -0.05269
C         30.69894        23.22105        -0.30108
C         29.48759        22.40877        -0.44019
C         30.67409        24.54840        -0.93998
C         29.45849        25.20958        -1.21869
C         30.61389        27.34327        -1.66079
C         29.43224        26.60849        -1.58877
C         30.64025        28.78704        -1.65340
C         29.42874        29.47698        -1.64978
C         30.70184        31.64747        -1.48867
C         29.42903        30.91467        -1.35100
C         30.67866        33.15472        -1.65596
C         29.39245        33.76742        -1.16757
C         30.60452        35.95117        -0.59510
C         29.33431        35.21770        -0.81913
C         30.56124        37.24066        -0.07903
C         29.24683        37.92542        -0.16349
C         30.72630        40.01829         1.16340
C         28.93282        38.97256         0.64113
C         30.57815        41.39476         1.02389
C         29.21529        42.01577         1.14521
C         30.56354        44.24773         1.17256
C         29.25475        43.51950         1.22123
C         30.47499        45.61590         1.50918
C         29.28998        46.36431         1.34696
C         31.12374        48.98363         1.26750
C         29.27926        47.77667         1.55398
C         30.75214        50.32598         1.12514
C         29.47338        50.83126         1.57359
C         29.36318        52.23849         1.84336
C         32.01782        16.82951         0.80646
C         33.20517        18.95786         0.42678
C         31.99053        18.21914         0.57021
C         33.19282        20.33124         0.18887
C         31.94508        21.00740         0.00042
C         33.31060        23.00630        -0.79593
C         32.02667        22.46629        -0.15893
C         33.24316        24.51206        -1.04513
C         31.93724        25.13195        -1.35859
C         33.14341        27.39433        -1.55060
C         31.89977        26.64651        -1.71973
C         33.13827        28.81029        -1.43971
C         31.89363        29.49970        -1.52160
C         33.17744        31.65710        -1.52650
C         31.88310        30.93858        -1.53654
C         33.15644        33.16839        -1.23155
C         31.87479        33.85930        -1.07604
C         33.02490        35.80107        -0.11264
C         31.82356        35.18002        -0.62977
C         33.06849        37.20512         0.22503
C         31.81590        37.89468         0.33522
C         33.06004        40.02157         0.73799
C         31.85177        39.27408         0.72513
C         32.98576        41.43968         0.87787
C         31.78436        42.16963         0.82601
C         32.84408        44.41404         0.12157
C         31.78701        43.63699         0.79027
C         32.80133        45.84140        -0.07231
C         32.19498        46.79510         0.76065
C         32.05527        48.19235         0.54504
C         34.40217        21.12904         0.35485
C         35.67297        23.22062         0.40358
C         34.50152        22.45550         0.00754
C         36.15966        24.32285        -0.27169
C         34.35181        25.22867        -1.41881
C         35.57011        27.40241        -1.45906
C         34.35652        26.67866        -1.55512
C         35.62824        28.78700        -1.17141
C         34.38914        29.51217        -1.23715
C         35.60728        31.64719        -0.93677
C         34.40387        30.92945        -1.18821
C         35.57396        33.04430        -0.60788
C         34.33262        33.71369        -0.54853
C         35.93228        36.04105         0.21322
C         34.10716        34.94223         0.12863
C         35.64970        37.39714        -0.03141
C         34.34367        37.94024         0.30789
C         35.82453        40.46577        -0.65123
C         34.27688        39.32893         0.56056
C         35.35666        41.75460        -1.09222
C         34.50056        42.55835        -0.32179
C         33.86709        43.77120        -0.66181
C         37.18864        25.23329         0.15390
C         38.31403        27.50254        -0.18549
C         37.42550        26.44401        -0.49714
C         38.16112        28.82797        -0.67031
C         36.87889        29.49330        -0.94264
C         38.07504        31.67150        -0.88143
C         36.84785        30.90384        -0.86315
C         38.06057        33.06478        -0.82611
C         36.87992        33.74240        -0.17967
C         37.93493        35.94132        -1.13297
C         36.90436        35.24856        -0.39588
C         37.84205        37.31790        -1.29907
C         36.85752        38.20138        -0.55241
C         36.50300        39.47563        -1.31529
C         39.34933        29.61113        -0.77561
C         40.50120        31.74491        -1.35701
C         39.32620        30.97747        -1.03599
C         40.41926        33.09388        -1.55358
C         39.19677        33.81649        -1.28416
C         39.09514        35.18625        -1.53186
O         34.19361        42.12629         0.99219
O         15.08003        46.60451        -1.48743
O         26.52775        46.22217        -0.97568
O         35.04281        35.36389         1.08038
O         28.54570        18.04213        -0.44854
O         18.83738        31.75946         1.09396
O         22.71520        35.83354         0.14521
O         30.35520        48.30528         2.25773
O         26.76843        19.06303         2.79123
O         27.47006        22.26137        -1.68945
O         24.58263        46.94065         1.92679
O         24.46093        17.67590         3.14181
O          9.39021        34.53273         0.63809
O         28.12731        27.96234        -3.12717
O         21.12761        32.68044         0.78985
O         31.92047        25.61811        -2.75048
O         16.16611        37.67312        -3.13295
O         23.22690         6.54354         2.91661
O          7.35483        31.16387        -2.11213
O         10.83999        39.86953         0.79824
O         26.82962        51.01137         3.18791
O         31.45833        23.19114         0.96713
O         20.58910        45.62334        -1.83477
O         33.37771        32.64499        -2.59845
O         20.40577        15.47180         2.92999
O         35.44720        40.08514         0.67633
O         15.63293        22.87516        -1.60181
O         26.78822        13.15659        -0.10424
O         23.47974        31.43865        -2.76039
O         19.55598        42.99764         0.70279
O         29.28367        34.17055         0.23435
O         18.35935        15.40153        -0.45806
O         22.33377        55.87981         0.66163
O         25.21715        33.54820        -0.00164
O         29.71324        39.26637         1.75972
O         18.96861        24.59358        -1.54792
O         23.97475        12.20741         3.20597
O         26.67801        39.25537         1.25722
O         35.58431        24.57892        -1.53379
O         30.38835        16.88263         2.59841
O         13.95571        23.18995         1.57085
O         29.03402        42.71126         2.43292
O         14.86252        42.33152        -1.96012
O         23.16851        36.73031        -3.03194
O         16.73190        30.47277         1.06259
O         28.72958        31.24893        -0.06320
O         16.38517        25.02107         1.23756
O         20.91615        12.01958         2.69895
O         22.86115        44.39860        -1.86765
O         15.08466        44.16095         1.11662
O         12.85896        27.01743        -2.12790
O         26.42371        48.61690        -0.60849
O         14.10313        39.78461         0.48296
O         18.83337        12.07128        -0.13592
O         36.72645        26.68474        -1.70302
O         24.74826        28.87560        -2.87119
O         31.63306        46.26441         1.94363
O         18.90019        27.22333        -1.81562
O         22.27721        48.06020         2.02119
O         22.65122        58.03425         3.58743
O         21.08564        10.28378        -0.54762
O         20.05858        37.71082        -3.23959
O         27.70940        16.32433         2.87776
O         26.72603        21.49849         1.73160
O         16.40274        33.25156        -2.50429
O         20.49735        25.19826         1.71903
H         21.29466        24.98745         2.24990
O         33.36021        22.38213        -2.10606
H         34.16491        22.71098        -2.56081
O         28.60112        37.89338        -2.49069
H         28.01797        37.45440        -3.14898
O         10.32483        27.25887        -2.58316
H         11.17095        27.32954        -3.08295
O         20.53018        36.73985         0.20827
H         21.38297        36.49277         0.70602
O         13.89544        38.84756        -2.66453
H         14.67284        39.04232        -3.24326
O         12.98051        28.76243         1.09883
H         13.13270        29.64719         1.49397
O         26.43299        24.62570        -2.81630
H         27.04172        25.02667        -3.47136
O         24.88511        27.05448         0.86802
H         25.57144        26.39049         1.14109
O         21.74882        55.59757         4.10074
H         22.64034        55.83414         4.48343
O         25.85181        51.00629        -0.26866
H         26.23731        50.37999        -0.92909
O         24.36557        22.13645         2.37015
H         24.74443        21.61709         3.11054
O         19.22504        34.50504         0.95841
H         19.51827        33.73218         1.50065
O         26.31290        24.77454         0.82346
H         25.91015        24.15349         1.47229
O         21.08191        29.07512         1.42118
H         21.01549        30.02480         1.66347
O         24.28303        56.43277         4.50878
H         24.10188        57.37330         4.74737
O         23.95147        21.41013        -1.15149
H         23.85848        21.96968        -1.95238
O         30.70170        33.37836        -3.10444
H         31.61086        33.13559        -3.40723
O         28.47270        15.05132        -0.48169
H         28.11101        14.27679        -0.97343
O         37.03265        33.49717         1.25404
H         36.32822        34.01899         1.70536
O         37.61589        38.59018         0.64470
H         37.04532        39.22540         1.14017
O         13.45921        16.10340         0.48942
H         13.68873        16.19533        -0.45803
O         16.64450        40.20619        -3.32966
H         17.27707        39.75927        -3.93004
O         20.97537        49.26854        -1.16322
H         20.21232        49.80014        -1.47318
O         25.91472        36.10932        -3.57308
H         25.04267        36.38228        -3.94005
H          4.65882        31.37929        -0.16990
H          4.89614        33.72156        -0.54106
H          7.44245        27.06474         0.12111
H          6.35912        29.12489         0.37607
H          6.04666        35.76192        -1.00230
H          7.33558        37.92289        -1.40687
H          9.77245        22.71878         0.30566
H          8.63327        24.90899         0.24597
H          8.51314        40.02555        -1.45451
H          9.73846        42.36799        -1.05077
H         12.34823        18.38142         0.91921
H         11.07296        20.50840         0.56519
H         11.00221        44.51384        -0.72873
H         12.20109        46.59233        -0.11639
H         14.88495        14.12971         1.28958
H         14.16126        16.64057         2.33978
H         13.57338        48.71783         0.63243
H         14.84090        50.79195         0.99836
H         17.53641         9.80348         2.01596
H         16.05887        12.07835         1.77038
H         16.08397        52.84942         1.52772
H         17.38377        54.97368         1.82803
H         19.95385         5.59858         0.89295
H         18.67632         7.64208         1.33313
H         18.60005        57.01708         2.17006
H         19.82349        59.16876         1.45245
H         23.48720         2.48949        -0.12009
H         21.29390         3.61577         0.13749
H         23.40784        62.39968         1.29996
H         21.25315        61.23624         0.98932
H         25.60593         3.62668         0.46401
H         26.79232         5.66297         1.27170
H         26.60336        59.04009         2.40560
H         25.45219        61.21377         2.02488
H         27.98539         7.75789         1.59703
H         29.21157         9.88176         1.67803
H         29.01527        54.90354         2.27522
H         27.78140        56.95975         2.43809
H         30.42882        12.02216         1.67438
H         31.67524        14.08069         1.61446
H         31.44804        51.04005         0.65844
H         30.28654        52.83554         1.78363
H         32.96630        16.28412         0.68922
H         34.16054        18.44722         0.61682
H         33.42364        46.22912        -0.89469
H         32.58985        48.64897        -0.30015
H         35.25849        20.63593         0.84040
H         36.20766        22.87646         1.30254
H         35.62688        42.08602        -2.10461
H         34.28013        44.34646        -1.50593
H         37.71311        25.02490         1.09686
H         39.23042        27.27684         0.38261
H         38.67671        37.84016        -1.79243
H         36.87417        39.62640        -2.33872
H         40.31807        29.09384        -0.70650
H         41.45540        31.21721        -1.49896
H         41.30516        33.66517        -1.86717
H         39.94907        35.72112        -1.97385
