         429
 CSIRO Nanostructure Databank - Neutral Graphene Oxide Data Set
C          1.45671         5.05783        -4.14220
C          0.25424         5.50372        -3.65840
C          1.32041         7.16252        -2.18717
C          0.18099         6.58668        -2.73280
C          1.29012         8.25559        -1.25992
C          0.03218         8.86055        -0.89775
C          1.12346        10.48286         0.61510
C         -0.05721         9.92408        -0.06101
C          1.15180        11.96637         0.99726
C          0.03895        12.82343         0.57266
C          1.29734        14.81414         1.23748
C          0.15213        14.16833         0.61896
C          1.23994        16.25422         1.49828
C          0.09126        17.00231         1.16747
C          1.15132        19.06851         1.89099
C          0.03861        18.36867         1.38292
C          1.07893        20.51098         2.09898
C         -0.08937        21.23730         1.97945
C          1.04881        23.41856         1.93611
C         -0.10536        22.66028         1.91618
C          1.07357        24.84550         1.60975
C         -0.16356        25.58100         1.39478
C          1.01938        27.72279         1.06068
C         -0.20356        26.90693         1.10863
C          1.03629        29.11341         0.51100
C         -0.14358        29.88216         0.49063
C          1.12336        31.90020        -0.03306
C         -0.10342        31.23557         0.19634
C          1.17835        33.33293        -0.24491
C          0.00829        34.12378        -0.33654
C          1.32613        36.15354        -0.56234
C          0.07688        35.49629        -0.51841
C          1.40426        37.60091        -0.71535
C          3.85759         5.43258        -4.35878
C          2.69290         5.66171        -3.69903
C          3.83678         7.38772        -2.24064
C          2.64773         6.47501        -2.42216
C          3.74688         8.43920        -1.28081
C          2.50283         8.80763        -0.74362
C          3.69396        10.53221         0.80744
C          2.44236         9.81612         0.35924
C          3.60785        11.89208         1.41320
C          2.44505        12.62983         1.31295
C          3.45417        14.62599         2.51126
C          2.40586        14.05845         1.57987
C          3.52763        16.15467         2.52431
C          2.34389        16.93748         2.07069
C          3.56422        19.06936         2.72359
C          2.33163        18.34142         2.19548
C          3.60033        20.51413         2.30080
C          2.31836        21.23126         2.42376
C          3.62600        23.42193         2.07815
C          2.30785        22.74763         2.32226
C          3.59593        24.84704         1.60951
C          2.27573        25.49556         1.40884
C          3.50392        27.47700         0.42458
C          2.30985        26.94405         1.14645
C          3.48372        28.92081         0.00694
C          2.26228        29.73996         0.21132
C          3.61020        31.78868        -0.22585
C          2.32578        31.13678        -0.02916
C          3.65076        33.19127        -0.37841
C          2.45104        33.96820        -0.36743
C          3.79241        36.07499        -0.44360
C          2.50803        35.39488        -0.47376
C          3.85537        37.57835        -0.24157
C          2.56661        38.26914        -0.59995
C          6.35991         5.34502        -4.11591
C          5.12038         6.18804        -4.07034
C          6.28168         7.57979        -2.30886
C          5.04596         7.05523        -2.83895
C          6.24997         8.64928        -1.38504
C          4.94518         9.35335        -1.12595
C          6.14714        10.79234         0.52244
C          4.97625        10.20935         0.12276
C          6.18711        11.74462         1.70211
C          4.86934        12.49077         1.94763
C          6.11136        14.73358         2.28888
C          4.84783        13.93617         2.38817
C          6.10950        16.11617         2.39254
C          4.85206        16.87496         2.60053
C          6.02790        19.01105         2.16067
C          4.84144        18.33366         2.38919
C          6.03453        20.44467         1.95148
C          4.79977        21.18393         2.01259
C          6.00104        23.24899         1.33108
C          4.82501        22.60787         1.79032
C          5.99941        24.65888         0.95120
C          4.81277        25.42494         0.98870
C          5.98746        27.42094         0.12427
C          4.78977        26.75939         0.53531
C          5.96705        28.82321        -0.20932
C          4.78867        29.59204        -0.15782
C          6.11512        31.70032        -0.05248
C          4.81702        31.00802        -0.22305
C          6.17743        33.18234        -0.21758
C          4.94144        33.87522        -0.76632
C          6.25844        36.08074        -0.45837
C          4.95106        35.36353        -0.50159
C          6.25690        37.48155        -0.98208
C          5.04782        38.16629        -0.95337
C          8.77272         5.12345        -3.74549
C          7.53509         5.78366        -3.51139
C          8.71142         7.37326        -1.99998
C          7.51100         6.93724        -2.62361
C          8.67987         8.47792        -1.09429
C          7.44512         9.13329        -0.81336
C          8.62168        10.79358         0.57419
C          7.42347        10.27256         0.06568
C          8.62487        12.04747         1.30409
C          7.40301        12.65683         1.67810
C          8.58550        14.74311         2.22965
C          7.37389        14.03164         2.08981
C          8.60282        16.17293         2.34720
C          7.33196        16.88860         2.31488
C          8.51029        19.09009         2.30037
C          7.28318        18.28120         2.21388
C          8.50931        20.45137         1.75645
C          7.23746        21.12394         1.61831
C          8.40359        23.06102         0.55353
C          7.19337        22.48470         1.22537
C          8.42380        24.56284         0.48335
C          7.21742        25.30216         0.51647
C          8.50328        27.44719         0.11532
C          7.20121        26.69387         0.17780
C          8.47742        28.76277        -0.60947
C          7.18293        29.51941        -0.78324
C          8.54857        31.62732        -0.81336
C          7.40907        30.90114        -0.11029
C          8.59418        33.02748        -0.90555
C          7.47256        33.81328        -0.54267
C          8.80355        35.93510        -0.96320
C          7.53902        35.27636        -0.51428
C          8.73424        37.41860        -1.46311
C          7.42897        38.04935        -1.52106
C         11.20974         4.95189        -3.43790
C          9.97690         5.58740        -3.17498
C         11.14770         7.16540        -1.66709
C          9.94732         6.72254        -2.28771
C         11.08352         8.21284        -0.69789
C          9.87979         8.90180        -0.44441
C         11.06376        10.67672         0.81473
C          9.86489        10.10861         0.35174
C         11.08867        12.01768         1.32518
C          9.86604        12.67592         1.57843
C         11.13842        14.72630         2.19028
C          9.86399        13.94719         2.38406
C         11.10262        16.16090         2.50065
C          9.81432        16.87412         2.40478
C         11.07432        19.06154         2.02476
C          9.85959        18.34306         2.44156
C         11.00212        20.43291         1.68937
C          9.72902        21.12695         1.53310
C         10.90551        23.15949         0.79570
C          9.70828        22.46333         1.02271
C         10.94900        24.48565         0.22638
C          9.65433        25.14849        -0.05013
C         10.95294        27.32652        -0.46401
C          9.67327        26.62171        -0.36765
C         10.94872        28.70365        -0.68250
C          9.66313        29.38512        -0.85600
C         10.97511        31.47206        -1.39004
C          9.64573        30.77763        -1.42726
C         10.92584        32.86765        -1.85637
C          9.77739        33.70515        -1.45089
C         11.08077        35.74338        -2.00994
C          9.88042        35.08460        -1.51499
C         11.06302        37.18020        -2.30928
C          9.86774        37.89969        -2.23963
C         13.62456         4.72293        -3.13869
C         12.42880         5.41996        -2.88275
C         13.59623         7.01008        -1.34511
C         12.39737         6.55447        -1.98630
C         13.57426         7.98593        -0.35975
C         12.29121         8.55179         0.05142
C         13.59490        10.57446         0.99964
C         12.29804         9.89309         0.82448
C         13.57768        11.96748         1.36728
C         12.34968        12.65879         1.57738
C         13.59442        14.78561         1.91146
C         12.34506        14.07072         1.92162
C         13.63056        16.20720         2.10607
C         12.38810        16.94633         2.45027
C         13.54021        19.05915         1.87195
C         12.35435        18.39546         2.09625
C         13.52442        20.42316         1.23146
C         12.20478        21.14447         1.42098
C         13.36029        23.24582         0.97484
C         12.14747        22.49952         1.07870
C         13.38129        24.52352         0.41392
C         12.15754        25.15301         0.01265
C         13.42599        27.34532        -0.44687
C         12.19274        26.50483        -0.70697
C         13.41650        28.72590        -0.61577
C         12.17935        29.41488        -0.85758
C         13.45548        31.50699        -1.41842
C         12.18090        30.80696        -1.22874
C         13.49382        32.81752        -1.92887
C         12.22651        33.53357        -2.23211
C         13.43022        35.65228        -2.79275
C         12.21646        35.00726        -2.29362
C         13.47547        37.12414        -2.86659
C         12.25662        37.81757        -2.74046
C         16.11966         4.39107        -2.66132
C         14.91358         5.20271        -2.68122
C         16.04813         6.54884        -0.75850
C         14.90157         6.44551        -1.75623
C         16.08706         7.93008        -0.16827
C         14.79423         8.41134         0.44325
C         16.04362        10.58325         0.90196
C         14.79173         9.90106         0.75340
C         16.04686        11.95168         1.32839
C         14.82461        12.63511         1.54338
C         16.04542        14.74629         1.82337
C         14.83131        14.06715         1.78301
C         16.04477        16.19745         1.67951
C         14.80711        16.91854         1.97241
C         16.10311        19.09063         1.78175
C         14.84575        18.39962         2.27134
C         16.08595        20.55449         1.42944
C         14.73831        21.26858         1.58826
C         15.62695        23.59261         1.77272
C         14.58066        22.63364         1.48353
C         15.80317        24.74906         1.08861
C         14.68337        25.22034         0.24489
C         15.81825        27.53416         0.34677
C         14.69477        26.67469        -0.14926
C         15.86853        28.91240        -0.17969
C         14.66781        29.49568        -0.60874
C         15.92885        31.53998        -1.16073
C         14.67752        30.85006        -1.05921
C         15.93519        32.87252        -1.68951
C         14.74183        33.49758        -2.07424
C         15.94846        35.69760        -2.55657
C         14.75661        34.86651        -2.66840
C         15.94254        37.07845        -2.85632
C         14.70682        37.76575        -3.05369
C         18.59527         4.33666        -2.54516
C         17.33751         4.93745        -2.20287
C         18.54870         6.76021        -1.07204
C         17.34105         6.10925        -1.39324
C         18.54127         8.01685        -0.37746
C         17.27675         8.60945         0.01841
C         18.51507        10.58558         0.87308
C         17.27441         9.93334         0.61100
C         18.49969        11.91741         1.42303
C         17.30793        12.60355         1.56514
C         18.59170        14.77347         1.71440
C         17.32985        14.01830         2.10775
C         18.61207        16.18128         1.60219
C         17.33190        16.93501         1.52473
C         18.56170        19.09178         1.44416
C         17.31963        18.41893         1.66141
C         18.61056        20.51797         1.45488
C         17.40958        21.21652         1.78535
C         18.63293        23.33659         1.58555
C         17.56086        22.57493         2.05933
C         18.45795        24.76851         1.24163
C         17.13397        25.42740         0.96609
C         18.32671        27.69497         0.82986
C         17.06173        26.92853         0.91090
C         18.34309        28.96031         0.28254
C         17.11506        29.60256        -0.22531
C         18.48752        31.52941        -1.09102
C         17.14521        30.90159        -0.75892
C         18.44566        33.03840        -1.18275
C         17.22956        33.58622        -1.83778
C         18.33334        35.91293        -1.78327
C         17.21203        35.03417        -2.21936
C         18.37656        37.26844        -2.37799
C         17.18036        37.80891        -2.87178
C         19.77851         4.93919        -2.19361
C         20.99923         6.84680        -1.16985
C         19.78764         6.17866        -1.48855
C         20.98699         8.04701        -0.49573
C         19.76267         8.67217        -0.09439
C         20.97958        10.62737         0.90712
C         19.74936         9.95256         0.56523
C         21.01121        11.83208         1.52147
C         19.76993        12.56157         1.94173
C         21.00279        14.74386         1.45088
C         19.80004        14.05554         1.66110
C         21.02006        16.13533         1.37572
C         19.83124        16.87190         1.45299
C         20.97085        19.09345         0.85105
C         19.88266        18.37778         1.61473
C         20.96616        20.44936         0.76786
C         19.83341        21.23260         1.20848
C         20.94859        23.50891         0.90628
C         19.83414        22.67454         1.19074
C         20.87790        24.92007         1.05367
C         19.68505        25.58819         1.26932
C         20.76402        27.87781         1.40792
C         19.51036        27.07145         1.55821
C         20.76703        29.11092         0.86521
C         19.58804        29.72651         0.27480
C         20.79503        31.84551        -0.14170
C         19.63356        31.00669        -0.25623
C         20.78166        33.15816        -0.51488
C         19.58398        33.79094        -1.01776
C         20.81722        36.04716        -1.40256
C         19.57959        35.27482        -1.22573
C         20.78225        37.33748        -1.87952
C         19.59596        37.96641        -2.33261
O          9.21907        36.99146        -0.11064
O          3.85642        24.52074         3.03095
O          9.19281        18.95758         3.59428
O         11.84251        16.57099         3.75046
O         18.57081        35.91567        -0.33802
O         17.55527        33.99675        -3.23237
O          2.23744        22.08734         3.62175
O          4.07824        16.54176         3.83631
O         12.14246         8.60755         1.52737
O          7.02143        35.86051         0.76133
O          3.22029        27.84190        -0.97637
O          1.83628        27.71467         2.29959
O         16.55067        23.24146         2.75517
O          6.06413        32.61230         1.12694
O         15.05570        25.62219        -1.11185
O          4.86708        12.85325         3.37622
O          3.14839         9.39903         1.57504
O         16.03378        27.47579         1.81264
O          9.46008        25.66319        -1.46119
O         14.03287        34.97253        -3.93616
O         15.23043         6.61896        -3.11955
O          0.83663        10.90516         1.96962
O         11.34946        32.95675        -3.27599
O         16.61025        16.57626         0.27634
O         17.87343        24.88900        -0.17981
O          6.87196        29.72043        -2.17674
H          7.69917        29.99318        -2.65147
O         19.13402        27.10372         2.98115
H         18.79270        28.00101         3.18236
O          8.26760        22.64536        -0.87004
H          8.88705        23.19496        -1.39907
O          2.76962         5.49930        -1.32826
H          1.96784         4.93487        -1.35073
O         17.37539        13.91526         3.57130
H         18.22028        13.44326         3.79414
O         20.22812        18.54748         3.04480
H         20.25793        19.51214         3.22271
O         15.74945         5.60426         0.32036
H         15.37546         6.12466         1.07673
O         19.71379        12.45125         3.41645
H         19.68713        11.49590         3.63826
O         14.90751        18.51056         3.74226
H         14.10891        18.07362         4.11201
O          9.86326        13.52197         3.80254
H         10.69968        13.03557         3.96492
O          8.82647        27.78043         1.51111
H          8.43531        28.66693         1.70314
O          6.39867        10.88174         2.85470
H          6.10411        11.39102         3.64520
O          2.91512        14.27011         3.80577
H          3.49206        14.68363         4.48530
O          5.08227        33.72281        -2.22352
H          4.24998        34.03254        -2.63989
O          4.07441        37.82738         1.18632
H          4.91695        37.38957         1.43691
O         14.68118         7.70889         1.73990
H         13.76348         7.89828         2.06936
O         18.78399        31.08074        -2.46405
H         18.25664        31.63401        -3.08119
O         12.17119        26.18887        -2.14064
H         11.26240        25.85558        -2.33541
O         13.56609        20.15957        -0.22079
H         14.51681        20.21893        -0.50053
O          7.81848        30.61573         1.26006
H          7.54346        31.39731         1.79616
O         16.19906        20.56239        -0.08004
H         16.91708        19.93465        -0.32091
O          3.45491        19.10961         4.18316
H          3.57831        18.18051         4.49920
O          4.77592        10.33759        -2.23171
H          5.64382        10.77500        -2.36691
O          9.33817        30.62777        -2.87224
H          9.67234        31.42537        -3.34078
O          5.26547         7.13734        -5.20284
H          6.10837         7.62116        -5.06789
H          1.49226         4.30100        -4.93959
H         -0.68360         5.07105        -4.03382
H         -0.81834         6.96738        -2.48139
H         -0.89504         8.45409        -1.32240
H         -1.04463        10.31806         0.21538
H         -0.88252        12.36223         0.19322
H         -0.68640        14.77477         0.25619
H         -0.79736        16.51520         0.74963
H         -0.88372        18.90755         1.13003
H         -1.04733        20.72146         1.82694
H         -1.07595        23.13606         1.72142
H         -1.11293        25.02993         1.43501
H         -1.16923        27.37593         0.87050
H         -1.10894        29.41308         0.72459
H         -1.04554        31.79883         0.19418
H         -0.98105        33.65148        -0.27611
H         -0.84692        36.08666        -0.59868
H          0.46885        38.14277        -0.92259
H          3.86133         4.77255        -5.24120
H          2.58969        39.36503        -0.69617
H          6.39072         4.48584        -4.80284
H          5.02263        39.22766        -1.24407
H          8.79235         4.24688        -4.40966
H          7.34547        38.99873        -2.07037
H         11.23068         4.07873        -4.10660
H          9.81505        38.90525        -2.68253
H         13.57530         3.74183        -3.63353
H         12.24528        38.90724        -2.88991
H         16.09824         3.38877        -3.11391
H         14.72733        38.85661        -3.19165
H         18.59699         3.40306        -3.12597
H         17.16892        38.84876        -3.23045
H         20.73844         4.48265        -2.47574
H         21.95527         6.39777        -1.47567
H         21.94696         8.53323        -0.27945
H         21.93599        10.13787         0.67855
H         21.98210        12.25487         1.81596
H         21.95482        14.19945         1.39656
H         21.98513        16.65163         1.28239
H         21.83848        18.53009         0.47861
H         21.81949        20.97006         0.30837
H         21.91986        23.05974         0.65553
H         21.81636        25.48936         0.97649
H         21.68967        27.47227         1.84162
H         21.71792        29.65975         0.83158
H         21.71176        31.44696         0.31272
H         21.68696        33.76330        -0.37442
H         21.78735        35.58261        -1.17876
H         21.72587        37.89704        -1.95745
H         19.64518        38.99477        -2.71758
