         349
 CSIRO Nanostructure Databank - Neutral Graphene Oxide Data Set
C          2.35403         4.06961         3.72858
C          1.36563         4.87505         4.19766
C          1.80737         6.64733         2.55234
C          1.07375         6.14761         3.59364
C          1.54039         7.97095         1.93558
C          0.60628         8.92706         2.53634
C          1.45827        10.78044         1.15687
C          0.51224        10.20692         2.08149
C          1.34520        12.16875         0.75079
C          0.18864        12.93701         1.02982
C          1.15187        14.89651        -0.06546
C          0.10276        14.26121         0.64490
C          1.07057        16.33572        -0.36669
C         -0.13737        17.04763        -0.23669
C          1.01662        19.16147        -0.54141
C         -0.17077        18.43243        -0.36731
C          0.98965        20.65049        -0.38488
C         -0.08966        21.47655        -0.95861
C          1.13390        23.59773        -0.57639
C          0.00556        22.83954        -1.03751
C          1.18349        25.02365        -0.64723
C          0.02017        25.79665        -0.92158
C          1.27199        27.88579        -0.86175
C          0.06740        27.17980        -1.03699
C          1.35577        29.31850        -1.05643
C          4.37958         3.78267         2.22947
C          3.09518         4.41935         2.51197
C          3.95968         6.45350         1.17070
C          2.83638         5.80988         1.89594
C          3.88258         7.81561         0.80344
C          2.61300         8.56069         1.00633
C          3.69226        10.63247         0.14130
C          2.57917        10.01604         0.76880
C          3.61216        12.02052        -0.20311
C          2.40506        12.79111         0.03165
C          3.34586        14.76797        -1.30029
C          2.30714        14.15466        -0.36976
C          3.44602        16.31501        -1.18361
C          2.24527        17.05618        -0.69258
C          3.51894        19.26430        -0.88757
C          2.23738        18.46969        -0.67670
C          3.55310        20.59642        -0.12053
C          2.25902        21.36069        -0.03945
C          3.64713        23.58796        -0.00625
C          2.29842        22.86699        -0.05905
C          3.66337        25.02785        -0.32598
C          2.43795        25.72376        -0.48944
C          3.68515        27.85293        -0.39021
C          2.46744        27.15541        -0.57166
C          3.66559        29.33838        -0.13320
C          2.48448        30.01095        -0.77809
C          6.44413         3.58233         0.96611
C          5.28278         4.33095         1.33169
C          6.16495         6.32091         0.11206
C          5.11955         5.70438         0.85250
C          6.13872         7.70201        -0.16139
C          4.97358         8.45053         0.16404
C          5.99060        10.53024        -0.68450
C          4.88148         9.87343        -0.16867
C          5.99643        11.96451        -0.75956
C          4.75311        12.66984        -0.67747
C          6.00135        14.81523        -1.13014
C          4.70174        14.06698        -1.15546
C          6.04210        16.30375        -1.33008
C          4.74541        17.06860        -1.27086
C          6.03226        19.24856        -0.80321
C          4.77953        18.42741        -0.55166
C          6.06483        20.61417        -0.61841
C          4.85984        21.34045        -0.13821
C          6.08812        23.50626        -0.38195
C          4.90109        22.82514        -0.15771
C          6.13531        24.96070        -0.33181
C          4.89881        25.70664        -0.32768
C          6.13663        27.85322        -0.21086
C          4.90907        27.14702        -0.32053
C          6.17847        29.28919        -0.33049
C          4.98348        29.99760        -0.41261
C          8.59709         3.37057        -0.20670
C          7.43340         4.10536         0.13411
C          8.54176         6.15311        -0.94455
C          7.28147         5.47820        -0.37761
C          8.59182         7.65524        -1.18636
C          7.15819         8.29668        -1.12876
C          8.40152        10.45739        -0.23415
C          7.27571         9.83969        -1.09788
C          8.49448        11.93041        -0.66250
C          7.21586        12.65753        -0.74360
C          8.42283        14.88382        -0.15785
C          7.19159        14.11576        -0.54173
C          8.41555        16.36752        -0.39913
C          7.33700        17.04064        -1.18510
C          8.47811        19.24735        -0.60846
C          7.31496        18.57597        -1.27499
C          8.51526        20.62487        -0.66007
C          7.30535        21.36918        -0.71972
C          8.56864        23.48633        -0.48489
C          7.34528        22.78773        -0.54594
C          8.62157        24.92224        -0.38959
C          7.36153        25.63017        -0.29212
C          8.68063        27.83527        -0.18502
C          7.37290        27.08750        -0.07266
C          8.66830        29.30746        -0.38357
C          7.45025        29.97130        -0.41036
C         11.09573         3.28060        -0.49381
C          9.78084         4.03094        -0.59055
C         11.01836         6.13961        -0.27866
C          9.78830         5.41986        -0.75744
C         11.00025         7.63918        -0.41333
C          9.74106         8.35696        -0.45432
C         10.94014        10.45238         0.18378
C          9.72061         9.71889        -0.26489
C         10.94858        11.95215         0.09759
C          9.75275        12.70492        -0.41340
C         10.95918        14.75455         0.16184
C          9.73351        14.16159        -0.10699
C         11.10407        16.08694         0.68930
C          9.23597        17.13413         0.36186
C         10.90021        19.15474         0.31539
C          9.51477        18.55027         0.14600
C         11.11683        20.47559        -0.43677
C          9.83618        21.27726        -0.68143
C         11.12820        23.44685        -0.33004
C          9.84969        22.76330        -0.62035
C         11.12823        24.87451        -0.68207
C          9.84266        25.60340        -0.55470
C         11.17256        27.84578        -0.71394
C          9.87037        27.07626        -0.66495
C         11.15141        29.27914        -0.30550
C          9.92781        29.97246        -0.34574
C         13.52917         3.44767        -1.20374
C         12.30718         4.08496        -0.92042
C         13.42988         6.25133        -1.01128
C         12.26684         5.48144        -0.79189
C         13.43452         7.65447        -0.69677
C         12.21878         8.31481        -0.35023
C         13.53002        10.49579        -0.10810
C         12.28024         9.68571         0.29678
C         13.50846        11.98479        -0.24162
C         12.22156        12.68911        -0.08598
C         13.44273        14.83015        -0.27792
C         12.20956        14.05474        -0.10750
C         13.43826        16.24662         0.06613
C         12.20580        16.89566         0.51142
C         13.36443        19.04877         0.58334
C         12.17084        18.36773         0.55934
C         13.45568        20.51050         0.30211
C         12.16047        21.29752         0.36808
C         13.53680        23.46343         0.18310
C         12.29043        22.76107        -0.03442
C         13.61250        24.87477         0.00027
C         12.46269        25.59399        -0.61694
C         13.68348        27.81246        -0.15165
C         12.47653        27.09923        -0.64614
C         13.58698        29.24985         0.21028
C         12.34837        29.92132         0.07265
C         15.98227         3.45041        -1.33249
C         14.72255         4.17303        -1.44028
C         15.71977         6.45381        -1.78555
C         14.61976         5.60507        -1.46290
C         15.85419         7.75638        -1.32357
C         14.65233         8.41221        -0.84627
C         15.86271        10.53746        -1.25992
C         14.67707         9.78824        -0.68839
C         15.90308        12.01522        -0.94122
C         14.56673        12.72329        -1.05411
C         15.84646        14.94270        -0.88836
C         14.60445        14.18934        -0.66260
C         15.85321        16.38242        -0.38718
C         14.61960        16.94650         0.15188
C         15.91223        19.05736         0.65763
C         14.63920        18.27172         0.86508
C         15.88127        20.47703         1.14114
C         14.73614        21.25352         0.48788
C         15.84004        23.39367         1.08244
C         14.71801        22.73973         0.62938
C         15.84702        24.87158         1.12337
C         14.75155        25.59584         0.43438
C         15.99885        27.73011         0.66274
C         14.83729        27.02476         0.35327
C         15.99547        29.17584         0.73310
C         14.75850        29.88991         0.60134
C         18.37556         3.32655        -0.54069
C         17.23779         4.00714        -1.15550
C         18.36821         6.20433        -0.78451
C         17.50126         5.39076        -1.47087
C         18.35218         7.65455        -0.88487
C         17.14779         8.40329        -1.15201
C         18.34629        10.51452        -0.70050
C         17.15534         9.80444        -0.98705
C         18.34025        11.95161        -0.61413
C         17.08482        12.68005        -0.79177
C         18.23635        14.79608        -0.04062
C         17.19020        14.18889        -1.06126
C         18.30891        16.31320        -0.05550
C         17.13539        17.03419        -0.03874
C         18.36214        19.15858         0.38315
C         17.10301        18.44310         0.31504
C         18.36075        20.58157         0.65763
C         17.16663        21.22786         0.97707
C         18.31507        23.48192         0.93733
C         17.12731        22.65271         1.47044
C         18.42071        24.82492         1.70807
C         17.12466        25.61485         1.43387
C         18.44217        27.77719         1.29009
C         17.29495        26.97369         0.76431
C         18.42217        29.17943         1.21215
C         17.18612        29.86805         0.96432
C         19.37236         4.04402         0.02319
C         20.66767         6.23801         0.06574
C         19.32565         5.54849         0.18616
C         20.73059         7.55214        -0.23736
C         19.53813         8.34814        -0.53459
C         20.74791        10.51388        -0.21244
C         19.56013         9.77450        -0.49322
C         20.73418        11.88622        -0.14182
C         19.53778        12.64357        -0.32824
C         20.72455        14.83049        -0.15305
C         19.55843        14.09469        -0.18997
C         20.74093        16.24355         0.00668
C         19.57522        16.99827         0.06994
C         20.78926        19.19002         0.27771
C         19.57586        18.45307         0.22745
C         20.80273        20.56360         0.47218
C         19.61666        21.30342         0.65965
C         20.77477        23.50018         0.74481
C         19.63404        22.73586         0.85229
C         20.76776        24.93139         0.90924
C         19.67003        25.61139         1.34005
C         20.93189        27.84609         1.50004
C         19.67755        27.06342         1.78447
C         20.87852        29.21132         1.37677
C         19.64453        29.89956         1.32434
O          9.95507        22.04423        -1.93397
O         10.40259        27.59039        -1.93203
O          3.91726        16.95020        -2.45346
O         13.46508        27.60438        -1.60600
O          8.20971        27.44048         1.13098
O         10.71624        11.28883         1.39185
O          7.44655        14.47712         0.88119
O          7.55233         5.53392        -1.82375
O         17.64334        14.27700        -2.35349
O          9.98852        16.56125         1.38719
O         16.76668         5.91817        -2.54799
O          1.34789        20.93938         1.02881
O          4.32735        20.68538         1.10456
O          2.28998         4.60411         1.29095
O         13.98420        11.38813         1.00614
O          9.94520        19.26044         1.38668
O          5.53155        14.19201        -2.36572
O          2.85380        23.35361         1.20935
O         11.95859        25.08828        -1.88925
O         15.71548        16.05123        -1.82070
O         14.33392        20.80374        -0.83687
O         16.15502        25.50047         2.48900
O          6.93896        16.50330        -2.48340
O          1.43644         7.87219         0.47482
O          9.39527        12.27508        -1.77375
O         11.71483        21.29864         1.74596
H         12.34608        21.82353         2.28090
O         19.60646        27.05522         3.26196
H         19.18613        26.19398         3.52859
O         11.67087        20.12100        -1.70568
H         11.48054        20.85910        -2.33055
O          7.96792        10.43909         1.14594
H          8.73470        10.73128         1.69444
O         17.18619        22.54165         2.91631
H         16.56746        21.81021         3.17110
O          2.87152        14.48210        -2.63176
H          3.60253        14.71950        -3.24596
O          3.57458        19.65503        -2.27902
H          3.58609        18.82119        -2.80981
O         18.85759         5.77757         1.55543
H         18.84694         6.74807         1.69712
O         15.54446        20.46733         2.58434
H         15.23620        19.54847         2.81093
O         17.70137        26.60199        -0.62535
H         17.60370        27.39999        -1.18900
O          6.54251         7.99416        -2.41393
H          6.72302         7.03505        -2.58999
O          7.59645        10.23906        -2.44830
H          6.94147         9.79330        -3.03439
O          7.44022        18.93412        -2.68399
H          7.08641        18.17487        -3.20709
O         11.27612         2.95296         0.90578
H         12.16031         2.54384         1.01158
O         14.11294        12.69327        -2.43106
H         14.74018        13.22551        -2.96631
O         18.53773        24.62131         3.12960
H         17.63849        24.38412         3.46417
O         17.67531        14.43205         1.25694
H         18.31767        14.69088         1.95073
O         15.66932        10.46684        -2.72053
H         16.35518        11.03447        -3.13379
O          4.75728        18.06197         0.84922
H          4.71952        18.90604         1.36860
O          9.01915         7.79018        -2.57016
H          8.80245         8.71404        -2.84760
O         11.01220         5.92354         1.18721
H         11.13531         4.95545         1.34149
O         14.61364        17.96410         2.32560
H         13.75253        17.53127         2.51769
O         17.95732        23.78776        -0.43412
H         18.32256        24.66644        -0.68868
O          3.45774        29.49514         1.33439
H          4.19297        29.02231         1.78081
O         12.45579         9.36330         1.69556
H         12.70181        10.20311         2.14621
H          2.64742         3.16216         4.27660
H          0.80368         4.58916         5.09780
H          0.27109         6.74980         4.04178
H         -0.04360         8.59719         3.35893
H         -0.24810        10.86117         2.52946
H         -0.66180        12.48699         1.55859
H         -0.80322        14.82529         0.90288
H         -1.07682        16.51366        -0.04261
H         -1.12683        18.96536        -0.27040
H         -0.97439        20.97209        -1.37293
H         -0.83412        23.38468        -1.49184
H         -0.94916        25.29324        -1.03543
H         -0.85410        27.73630        -1.26137
H          0.47163        29.83597        -1.45915
H          4.61043         2.81990         2.71029
H          2.52576        31.09912        -0.93452
H          6.55062         2.55823         1.35328
H          5.01115        31.09409        -0.50286
H          8.65098         2.30772         0.07172
H          7.43841        31.06691        -0.50922
H         11.03480         2.32198        -1.08425
H          9.93612        31.06692        -0.22963
H         13.57163         2.34698        -1.18533
H         12.30729        30.99277         0.32144
H         15.87734         2.37587        -1.10522
H         14.75061        30.97249         0.79734
H         18.39770         2.22608        -0.52816
H         17.17913        30.96728         0.98534
H         20.21143         3.52018         0.50637
H         21.58111         5.68166         0.32455
H         21.71099         8.05024        -0.24551
H         21.69648         9.98597        -0.04690
H         21.67281        12.40788         0.09046
H         21.69746        14.32919        -0.25598
H         21.72305        16.73295         0.05865
H         21.74941        18.67293         0.14780
H         21.77371        21.07725         0.48601
H         21.74798        23.02956         0.54520
H         21.71211        25.46448         0.72336
H         21.90517        27.34659         1.61088
H         21.81133        29.79076         1.31087
H         19.63177        30.99634         1.25191
