         420
 CSIRO Nanostructure Databank - Neutral Graphene Oxide Data Set
C         27.86676        27.64766         0.96647
C         27.91131        29.05223         1.14934
C         26.76286        29.85219         1.31847
C         27.97911        31.95367         0.86945
C         26.79989        31.24088         1.20046
C         27.96866        33.29801         0.41095
C         26.80927        34.09333         0.41576
C         28.01581        36.10016        -0.35115
C         26.82298        35.42968         0.02652
C         28.03129        37.50778        -0.69164
C         26.84848        38.27257        -0.75115
C         28.07969        40.24363        -1.45822
C         26.87052        39.60117        -1.16734
C         28.14629        41.63568        -2.05694
C         26.86072        42.41547        -1.97203
C         28.02501        44.46221        -1.30363
C         26.82836        43.72888        -1.66999
C         27.97098        45.82478        -1.00437
C         30.31172        27.51804         0.66982
C         29.02170        26.91005         0.77840
C         30.41139        28.92847         0.76903
C         29.22360        29.69511         1.15633
C         30.50478        31.81662         0.47205
C         29.26517        31.24367         1.00274
C         30.51464        33.32041         0.31269
C         29.20545        33.85032        -0.28406
C         30.43055        35.99425        -0.76233
C         29.22936        35.36599        -0.40227
C         30.48856        37.39502        -1.04289
C         29.27390        38.14505        -1.00101
C         30.56196        40.21975        -1.44616
C         29.29445        39.53776        -1.31024
C         30.55640        41.68656        -1.37662
C         29.34514        42.38140        -1.51486
C         30.44919        44.47329        -0.81529
C         29.27644        43.77126        -1.22687
C         30.37309        45.88122        -0.55808
C         29.12957        46.52500        -0.65354
C         32.67368        24.59300         0.42472
C         31.49884        25.32561         0.45823
C         32.78119        27.40691         0.43668
C         31.51901        26.74031         0.50689
C         32.82277        28.83922         0.37955
C         31.63646        29.60422         0.52916
C         32.90935        31.69339        -0.01335
C         31.65692        31.05446         0.35458
C         32.91924        33.09553        -0.41457
C         31.70419        33.81275        -0.47373
C         32.92546        35.86625        -1.46939
C         31.60622        35.14742        -1.05478
C         32.94586        37.31842        -1.33825
C         31.73738        38.06525        -1.32078
C         33.03939        40.28629        -1.69388
C         31.75239        39.50425        -1.45301
C         33.01467        41.58240        -0.78406
C         31.73589        42.37972        -0.98433
C         32.86030        44.48094        -0.23118
C         31.68273        43.75476        -0.68099
C         32.80288        45.89654        -0.04279
C         31.58806        46.62061        -0.23615
C         32.83656        48.71777        -0.01716
C         31.62879        48.02300        -0.16657
C         35.24798        22.99148         0.30092
C         35.17526        24.42857         0.59822
C         33.93341        25.22756         0.44143
C         35.26471        27.33318         0.25609
C         33.99403        26.64314         0.40493
C         35.25532        28.75552         0.06494
C         34.07721        29.50103         0.14593
C         35.34534        31.62158        -0.21019
C         34.08593        30.94139        -0.05521
C         35.36834        33.04307        -0.43801
C         34.15384        33.73752        -0.70491
C         35.48615        35.85261        -1.23397
C         34.21307        35.03581        -1.50472
C         35.44229        37.31754        -1.07243
C         34.21114        38.01275        -1.23956
C         35.53824        39.96566        -1.54059
C         34.25837        39.40847        -1.43281
C         35.50525        42.13411        -1.13758
C         34.23700        42.50838        -0.76161
C         35.29196        44.55269         0.17870
C         34.11241        43.83232        -0.18253
C         35.21063        45.90084         0.49443
C         33.99776        46.61030         0.26410
C         35.35982        48.68551         0.08291
C         34.04278        48.03453         0.17323
C         35.49282        49.95463        -0.53688
C         37.72106        23.00176         0.23144
C         36.43573        22.32892         0.23952
C         37.72081        24.39322         0.19808
C         36.51615        25.17904         0.51018
C         37.74873        27.31465         0.09008
C         36.48289        26.62551         0.22297
C         37.78185        28.72621         0.01208
C         36.51975        29.42667        -0.40178
C         37.79267        31.58497        -0.07852
C         36.54845        30.90792        -0.16512
C         37.80179        33.02118        -0.06611
C         36.61022        33.71281        -0.38415
C         37.82992        35.93107        -0.17568
C         36.71060        35.14595        -0.71660
C         37.83671        37.28852        -0.35451
C         36.66216        38.00866        -0.82311
C         37.96254        40.30596        -0.97239
C         36.70799        39.41485        -1.01249
C         37.80269        41.71050        -0.27287
C         36.72109        42.54024        -0.45348
C         37.66567        44.45454         1.00413
C         36.68608        44.00622        -0.06737
C         37.60358        45.88811         1.39900
C         36.32191        46.68672         1.16466
C         37.81693        48.60527         0.39640
C         36.52142        48.01348         0.49142
C         37.91654        49.89248        -0.22704
C         36.73667        50.52448        -0.70178
C         40.20361        20.14432         0.53959
C         39.01562        20.83115         0.40129
C         40.22127        22.92543         0.19826
C         38.98465        22.24888         0.23019
C         40.25604        24.36832        -0.08464
C         38.94341        25.13678        -0.11221
C         40.20616        27.28501         0.12850
C         38.97087        26.59872         0.08269
C         40.21978        28.70138         0.17693
C         39.00667        29.42304         0.07523
C         40.23106        31.60363         0.14355
C         39.01880        30.87982         0.03700
C         40.22511        33.04006         0.22942
C         39.00367        33.73154         0.18673
C         40.26010        35.89005         0.46289
C         38.92936        35.18967         0.56289
C         40.23598        37.35383         0.57680
C         38.99391        38.09700         0.10606
C         40.37803        40.22928         0.08752
C         39.16392        39.51086        -0.39647
C         40.31718        41.69000         0.34698
C         38.96994        42.27016         0.49597
C         40.20022        44.41013         1.30473
C         38.93902        43.67400         1.07651
C         40.16049        45.83863         1.73989
C         38.85259        46.69177         1.76616
C         40.22268        48.65342         0.93224
C         38.98737        47.97095         0.93771
C         40.30078        49.98063         0.37441
C         39.17866        50.57838        -0.24888
C         40.42311        52.65589        -0.54950
C         39.30656        51.89907        -0.78753
C         42.69558        20.15277         0.73925
C         41.45458        20.82460         0.55350
C         42.70866        22.94490         0.43623
C         41.46188        22.23867         0.38906
C         42.67164        24.39421         0.45133
C         41.47203        25.11957         0.25933
C         42.60237        27.22090         0.75292
C         41.44502        26.53679         0.30325
C         42.77226        28.68091         0.50455
C         41.50564        29.43539         0.15361
C         42.66571        31.63267         0.31527
C         41.48011        30.91709         0.24171
C         42.68278        33.06453         0.27169
C         41.47018        33.75914         0.30087
C         42.73069        35.92337         0.40042
C         41.45874        35.21123         0.38276
C         42.71455        37.37500         0.48439
C         41.52329        38.05790         0.59601
C         42.75324        40.24340         0.57037
C         41.46685        39.53078         0.88433
C         42.73747        41.65153         0.68132
C         41.44459        42.34538         0.80710
C         42.68794        44.44644         1.47477
C         41.40490        43.74471         1.20504
C         42.73754        45.90401         1.42321
C         41.46721        46.60346         1.67183
C         42.66543        48.75389         1.51455
C         41.45058        48.05221         1.41466
C         42.57457        50.20458         1.33259
C         41.47669        50.75757         0.60473
C         42.53338        52.98124         0.69794
C         41.49841        52.13631         0.23414
C         43.88945        20.84611         0.77597
C         45.21425        22.99192         0.63879
C         43.93848        22.26398         0.63707
C         45.17537        24.47208         0.54821
C         43.84327        25.09068         0.81763
C         45.59053        27.53643         1.00896
C         43.67945        26.42989         1.16810
C         45.38719        28.84634         0.56865
C         44.04294        29.47736         0.78632
C         45.09224        31.66498        -0.17988
C         43.96476        30.94024         0.53379
C         45.15480        33.10814         0.26881
C         43.95491        33.78545         0.32234
C         45.21539        35.94319         0.32895
C         43.93967        35.23547         0.38953
C         45.18955        37.40471         0.25259
C         43.97247        38.09833         0.41616
C         45.18370        40.23452         0.19938
C         43.97162        39.52633         0.39783
C         45.14704        41.72632        -0.00793
C         43.94059        42.36193         0.62388
C         45.21990        44.51781         0.89388
C         44.01338        43.71687         1.13500
C         45.20177        45.90662         1.13340
C         43.94823        46.61769         1.38982
C         45.22885        48.70081         1.73898
C         43.94069        48.04772         1.59872
C         45.40474        49.98786         2.31807
C         43.46589        51.11916         1.90586
C         43.46982        52.49027         1.59472
C         47.68980        23.10811         0.48604
C         46.46030        22.38871         0.58730
C         47.77424        24.49182         0.41794
C         46.49769        25.24586         0.42351
C         47.78929        27.39587         0.11445
C         46.63507        26.72319         0.57046
C         47.74862        28.81222        -0.03386
C         46.50131        29.49851         0.01281
C         47.72321        31.69308        -0.13032
C         46.43149        30.94499        -0.26244
C         47.72887        33.08249         0.42077
C         46.40818        33.80020         0.75189
C         47.71542        36.04824         0.51865
C         46.41529        35.26939         0.38519
C         47.61875        37.33572        -0.30024
C         46.38717        38.12119         0.05857
C         47.64613        40.26813        -0.07435
C         46.39525        39.53565         0.03952
C         47.65088        41.68955         0.14037
C         46.44221        42.40967         0.32979
C         47.65832        44.53132         0.65164
C         46.43597        43.81349         0.60719
C         47.65887        45.92560         0.81679
C         46.43084        46.62956         1.05074
C         47.70349        48.71061         1.38570
C         46.44803        48.02156         1.37190
C         47.78057        50.01333         1.90416
C         46.64165        50.62647         2.41497
C         50.27198        24.57825         0.19319
C         49.01708        25.23556         0.21851
C         50.22214        27.36534        -0.27622
C         49.02295        26.65228        -0.01500
C         50.21114        28.81669        -0.36783
C         48.98665        29.54049        -0.19398
C         50.20636        31.67851        -0.28997
C         49.00186        30.94316        -0.11191
C         50.20596        33.10738        -0.28066
C         49.01898        33.83356         0.22043
C         50.11242        35.97824        -0.29070
C         48.97904        35.29355         0.11689
C         50.09738        37.43713        -0.36554
C         48.89586        38.13370        -0.25993
C         50.10509        40.28157        -0.32216
C         48.86297        39.56391        -0.23103
C         50.10177        41.70694        -0.12040
C         48.90448        42.37343         0.18057
C         50.14720        44.55968         0.23985
C         48.95807        43.77581         0.72324
C         50.12348        45.97664         0.35055
C         48.90705        46.65385         0.71587
C         50.11338        48.76991         0.68732
C         48.91214        48.04329         0.92691
C         51.44847        25.26185        -0.06130
C         52.68902        27.36918        -0.58172
C         51.47135        26.66026        -0.31866
C         52.61198        28.79626        -1.07928
C         51.39381        29.54184        -0.60911
C         52.61924        31.70743        -0.80313
C         51.41144        30.96226        -0.57792
C         52.60290        33.12044        -0.80220
C         51.37629        33.83308        -0.55853
C         52.53609        36.00332        -0.82037
C         51.35595        35.27579        -0.55566
C         52.50788        37.43491        -0.85866
C         51.32608        38.14726        -0.60088
C         52.54264        40.32523        -0.69489
C         51.30900        39.59005        -0.56597
C         52.53605        41.75747        -0.52636
C         51.34126        42.43870        -0.22583
C         52.53479        44.62055        -0.33036
C         51.32783        43.87970        -0.10107
C         52.53415        46.03793        -0.22673
C         51.31606        46.72454         0.11781
C         51.26479        48.13733         0.27643
C         55.12738        27.45887        -0.78218
C         53.95247        26.74777        -0.56788
C         55.12107        28.88187        -0.91561
C         53.88968        29.58122        -0.91780
C         55.09455        31.72306        -1.02503
C         53.87169        30.99342        -0.93601
C         55.06430        33.16578        -1.07720
C         53.82196        33.86836        -0.97517
C         55.01273        36.02298        -1.13131
C         53.79210        35.29214        -1.00255
C         55.01369        37.46499        -1.14613
C         53.70893        38.18875        -1.36696
C         54.97808        40.35766        -1.04293
C         53.74066        39.64878        -0.96858
C         54.97748        41.80804        -0.95509
C         53.76123        42.49145        -0.70043
C         54.95274        44.64861        -0.81289
C         53.74688        43.91880        -0.61884
C         54.92565        46.07203        -0.73113
C         53.75993        46.73981        -0.44627
C         56.33421        29.61988        -0.98468
C         56.31649        30.99622        -1.05993
C         56.25400        33.92083        -1.21253
C         56.22797        35.30043        -1.23597
C         56.18423        38.21600        -1.12813
C         56.17423        39.62183        -1.14484
C         56.16527        42.56568        -1.14189
C         56.15493        43.94410        -1.07903
O         29.44118        30.58944         2.29727
O         37.23654        44.81739         2.35582
O         31.99666        35.33966        -2.45041
O         36.54793        35.42920        -2.16855
O         35.62626        41.20322        -2.16644
O         42.40383        28.93842        -0.90375
O         38.72990        42.50252         1.93859
O         37.16217        44.65668        -1.24395
O         40.91003        46.09478         2.96235
O         35.91288        24.81907         1.80346
O         44.68343        27.02100         1.92727
O         45.67253        24.94305        -0.77222
O         44.08899        30.43446         1.90306
O         39.62148        24.73181        -1.35757
O         39.24040        37.91423         1.53933
O         47.11680        31.47486        -1.45846
O         44.34203        50.67435         2.90756
O         40.33586        39.69763        -1.28009
O         48.63656        33.21773         1.55874
O         43.50703        43.83960         2.51516
O         32.97639        41.04910         0.57771
H         32.87049        41.80462         1.19398
O         38.66889        47.15706         3.11692
H         38.51784        46.36778         3.67957
O         47.84548        36.40236         1.92026
H         47.57297        35.62308         2.45228
O         44.97991        41.91984        -1.47750
H         44.17882        41.41828        -1.74315
O         38.54590        35.22683         1.98168
H         38.63450        36.17058         2.26266
O         49.18887        43.59756         2.18225
H         50.02775        43.09821         2.28293
O         53.53828        38.20872        -2.84459
H         54.31249        38.68647        -3.21275
O         38.24684        40.59958        -2.35070
H         39.22670        40.58365        -2.46132
O         34.30258        34.54675        -2.86826
H         35.26381        34.46764        -3.07871
O         30.60900        33.87586         1.66274
H         31.25063        33.33897         2.17367
O         47.44607        36.89935        -1.68638
H         47.39309        37.69929        -2.25038
O         44.58392        31.69839        -1.54911
H         45.35359        31.87450        -2.13790
O         33.04972        40.69747        -3.07343
H         33.94254        41.06840        -3.26201
O         36.48839        29.27849        -1.87878
H         37.31515        29.67303        -2.23076
O         41.17586        39.72030         2.29313
H         41.90791        39.33252         2.81537
O         28.39406        41.41597        -3.48872
H         28.60409        42.28668        -3.88721
O         46.28343        33.77886         2.21961
H         47.16993        33.53509         2.58074
O         29.14348        33.32489        -1.64266
H         28.42211        33.78774        -2.11781
O         52.43072        28.66606        -2.54963
H         53.21415        28.18403        -2.89151
O         35.80122        47.00037         2.49256
H         35.88503        46.17514         3.02143
H         26.89315        27.13728         0.99628
H         25.78845        29.35712         1.44190
H         25.84252        31.77910         1.23829
H         25.86459        33.67817         0.79439
H         25.87857        35.98757         0.07579
H         25.87941        37.81545        -0.51084
H         25.91926        40.14295        -1.25751
H         25.93616        41.91141        -2.28962
H         25.87512        44.27953        -1.68933
H         27.00805        46.35341        -1.05448
H         28.93066        25.82010         0.68068
H         29.04788        47.59919        -0.44019
H         32.61630        23.49584         0.43069
H         30.54380        24.78465         0.48242
H         32.82175        49.81582        -0.06667
H         30.71020        48.60853        -0.31010
H         34.31538        22.43493         0.12835
H         34.60331        50.48522        -0.90338
H         36.41426        21.24355         0.06712
H         36.80054        51.50552        -1.18995
H         40.19114        19.05143         0.66195
H         38.07460        20.26488         0.42702
H         40.48189        53.69156        -0.91392
H         38.48091        52.34023        -1.36054
H         42.69563        19.06000         0.86343
H         42.53374        54.04316         0.41464
H         44.82216        20.28609         0.93193
H         44.21114        53.15064         2.06266
H         48.60732        22.50447         0.43211
H         46.53233        21.29134         0.59472
H         48.74310        50.53572         1.97021
H         46.69909        51.61224         2.89341
H         50.32486        23.49613         0.37647
H         50.12653        49.86210         0.80027
H         52.38710        24.69136        -0.07342
H         52.15920        48.74548         0.08729
H         56.09265        26.93324        -0.76534
H         54.03090        25.67215        -0.35488
H         55.85816        46.63205        -0.89232
H         53.78030        47.83596        -0.38407
H         57.29122        29.07856        -0.98518
H         57.27362        31.52992        -1.12658
H         57.22394        33.41536        -1.30478
H         57.17800        35.83806        -1.35237
H         57.16234        37.71891        -1.06936
H         57.14159        40.14052        -1.15145
H         57.11395        42.05454        -1.35355
H         57.08505        44.50991        -1.23296
