         404
 CSIRO Nanostructure Databank - Neutral Graphene Oxide Data Set
C          1.21432         3.37091        -0.31414
C          0.01247         4.04935        -0.36325
C          1.18042         6.19135        -0.46489
C         -0.00635         5.45492        -0.44158
C          1.15825         7.66699        -0.65140
C         -0.05055         8.45365        -0.37355
C          1.22061        10.56593        -0.33071
C         -0.01174         9.81086        -0.32314
C          1.21368        11.99609        -0.25700
C          0.01318        12.74659        -0.41272
C          1.21494        14.86111        -0.17770
C          0.02116        14.12317        -0.38891
C          1.22783        16.29297        -0.24740
C          0.08327        17.02134        -0.68876
C          1.23845        19.14682        -0.37079
C          0.08841        18.39188        -0.75048
C          1.22033        20.56501        -0.34227
C          0.07300        21.32416        -0.66114
C          1.23761        23.46048        -0.27419
C          0.05926        22.70396        -0.57331
C          1.22998        24.89559        -0.28175
C          0.03254        25.62536        -0.52319
C          1.20331        27.74329        -0.24326
C          0.01774        26.99744        -0.49713
C          1.19461        29.18044        -0.28039
C          0.00839        29.92913        -0.50070
C          1.26151        32.01924        -0.50826
C          0.03191        31.30546        -0.56361
C          1.30912        33.46342        -0.74188
C          0.09653        34.24031        -0.65581
C          1.24100        36.30856        -1.31720
C          0.07240        35.59375        -0.80644
C          1.31948        37.77507        -1.14876
C          3.67216         3.38646        -0.24606
C          2.44597         4.08497        -0.31594
C          3.68021         6.23614        -0.30865
C          2.43217         5.51754        -0.38502
C          3.71244         7.66538        -0.28383
C          2.48143         8.42564        -0.56440
C          3.66009        10.55239         0.00748
C          2.45580         9.87335        -0.27955
C          3.65101        11.98061         0.15284
C          2.43340        12.70232        -0.03813
C          3.64387        14.82169         0.31680
C          2.43846        14.13326         0.05204
C          3.60120        16.29542         0.64849
C          2.41014        17.02410         0.07024
C          3.66772        19.15788         0.21361
C          2.42133        18.42111         0.01309
C          3.67411        20.53163         0.15864
C          2.38436        21.29332         0.28275
C          3.64859        23.49612         0.14103
C          2.45423        22.77344        -0.03848
C          3.65186        24.90944         0.22184
C          2.42878        25.61625         0.00089
C          3.61480        27.76976         0.34300
C          2.41413        27.04549         0.01016
C          3.59581        29.17321         0.30417
C          2.42032        29.88286        -0.09858
C          3.75291        31.97072        -0.47542
C          2.44518        31.29857        -0.30923
C          3.79807        33.44012        -0.67571
C          2.53686        34.11220        -0.90738
C          3.85359        36.25362        -1.34793
C          2.55903        35.50678        -1.37272
C          3.80362        37.79327        -1.24984
C          2.48474        38.44866        -1.12579
C          6.13080         3.37616        -0.12579
C          4.90158         4.07207        -0.19324
C          6.13119         6.21403        -0.06524
C          4.89728         5.51464        -0.18825
C          6.13166         7.63413         0.06176
C          4.90328         8.36322        -0.02711
C          6.06394        10.47342         0.51509
C          4.90367         9.81514         0.12830
C          6.04611        11.91825         0.81095
C          4.84238        12.68989         0.46408
C          6.12236        14.83363         0.55564
C          4.85650        14.10887         0.49729
C          6.12520        16.29294         0.44874
C          4.91062        17.01309         0.41819
C          6.14440        19.13508         0.50119
C          4.91717        18.41954         0.33994
C          6.17993        20.56677         0.46400
C          4.94729        21.26680         0.10234
C          6.16776        23.47162         0.55179
C          4.94514        22.78113         0.10740
C          6.11020        24.91070         0.75404
C          4.85923        25.62953         0.57623
C          5.96367        27.75696         1.25301
C          4.80191        27.02928         0.71303
C          5.97429        29.26470         1.26974
C          4.69785        30.02448         0.89491
C          6.20329        32.01842         0.24395
C          4.96771        31.24429         0.01227
C          6.31121        33.37750        -0.43141
C          4.99630        34.13361        -0.58288
C          6.18126        36.31986        -0.52924
C          5.04952        35.57143        -0.80411
C          6.19389        37.78406        -0.56262
C          4.97621        38.47312        -0.72785
C          8.59469         3.37136        -0.05944
C          7.36542         4.06235        -0.07562
C          8.59477         6.21306        -0.00346
C          7.36771         5.50453        -0.03327
C          8.59499         7.64072         0.13984
C          7.36315         8.31444         0.25769
C          8.65873        10.49191         0.61370
C          7.32419         9.72616         0.65613
C          8.64516        11.97512         0.60725
C          7.37907        12.69690         0.92007
C          8.60097        14.83043         0.37511
C          7.31960        14.13854         0.62145
C          8.63748        16.32383         0.38995
C          7.34901        17.02449         0.51008
C          8.58727        19.13059         1.12909
C          7.35090        18.41428         0.65175
C          8.61013        20.60959         0.84839
C          7.37420        21.30129         0.65932
C          8.55757        23.43881         1.28905
C          7.33583        22.74748         0.73257
C          8.57389        24.92172         1.00640
C          7.31600        25.60222         0.94644
C          8.57420        27.79984         1.13879
C          7.31196        27.03729         1.27284
C          8.57447        29.22629         1.13094
C          7.29086        29.99192         1.26223
C          8.50928        32.19205         1.07115
C          7.28608        31.42204         0.81466
C          8.55226        33.61634         0.69387
C          7.41166        34.20935         0.18057
C          8.62003        36.44435         0.32852
C          7.33236        35.66173         0.12363
C          8.70001        37.76797        -0.40712
C          7.39132        38.49020        -0.34861
C         11.05829         3.36857        -0.13047
C          9.82674         4.06604        -0.10097
C         11.05454         6.20981        -0.28308
C          9.83002         5.50370        -0.10573
C         11.06428         7.67224        -0.30814
C          9.83300         8.38254         0.01229
C         10.96509        10.55761        -0.41577
C          9.82409         9.77605         0.08534
C         11.00934        12.03666        -0.16139
C          9.79962        12.66897         0.40325
C         11.13607        14.85288         0.54230
C          9.84761        14.11443         0.82460
C         11.12930        16.28729         0.68975
C          9.91441        17.02314         0.68683
C         11.08821        19.16500         0.95577
C          9.88993        18.42792         0.82548
C         11.09686        20.58732         0.98660
C          9.84552        21.30285         0.92475
C         11.06147        23.43318         1.00508
C          9.85533        22.73049         0.97338
C         11.03953        24.89951         1.20989
C          9.76359        25.63687         1.06929
C         11.03441        27.78870         0.83551
C          9.78749        27.08357         1.01983
C         11.01980        29.21887         0.72561
C          9.78268        29.91204         0.95226
C         11.02804        32.10529         0.80391
C          9.83650        31.37741         1.12394
C         11.04698        33.56130         1.01740
C          9.79314        34.33858         0.84726
C         11.11220        36.41383         0.40569
C          9.86655        35.69609         0.53825
C         11.10747        37.86514         0.23371
C          9.91230        38.54779        -0.00066
C         13.52815         3.37284        -0.19879
C         12.27394         4.05566        -0.29928
C         13.46654         6.16144        -0.90433
C         12.24076         5.47934        -0.46926
C         13.46321         7.65244        -0.97018
C         12.24297         8.36313        -0.55692
C         13.56511        10.57169        -0.51098
C         12.27099         9.83724        -0.67781
C         13.60352        11.99160        -0.16975
C         12.33300        12.75610        -0.04381
C         13.59762        14.81429         0.79717
C         12.32343        14.14955         0.47476
C         13.59332        16.28476         0.90682
C         12.38568        16.96876         0.85350
C         13.65322        19.20158         1.12833
C         12.34120        18.41836         1.14098
C         13.58718        20.64618         0.88125
C         12.33749        21.32280         0.94615
C         13.54580        23.48573         0.72952
C         12.31459        22.75378         0.90199
C         13.54479        24.90566         0.65709
C         12.33207        25.66030         1.01213
C         13.46919        27.79374         0.40552
C         12.27071        27.10496         0.71919
C         13.43562        29.22289         0.23648
C         12.21799        29.92311         0.41813
C         13.43916        32.14134         0.13341
C         12.12539        31.40257         0.07226
C         13.51813        33.50309         0.29202
C         12.34322        34.28330         0.75204
C         13.57750        36.41065         0.35793
C         12.32515        35.73039         0.46634
C         13.58237        37.85533         0.33272
C         12.35263        38.54907         0.29463
C         15.97550         3.41882         0.08075
C         14.75810         4.03505        -0.27353
C         16.02072         6.23407        -0.58023
C         14.79310         5.42703        -0.77915
C         16.01762         7.62467        -0.65893
C         14.79409         8.41075        -0.94065
C         16.02417        10.59529        -0.69326
C         14.74695         9.86489        -0.60815
C         16.06085        12.03464        -0.36822
C         14.81778        12.66912        -0.02356
C         16.16803        14.79323         0.43127
C         14.89484        14.04310         0.54462
C         16.20152        16.22777         0.83739
C         14.88074        16.99774         1.08421
C         16.05336        19.16066         0.54586
C         14.89760        18.46444         0.87285
C         16.02007        20.61241         0.42221
C         14.79671        21.33848         0.61126
C         15.97876        23.49802         0.30625
C         14.77196        22.77289         0.53291
C         15.94580        24.91750         0.24652
C         14.72394        25.63254         0.35601
C         15.90123        27.79206        -0.07559
C         14.70702        27.07999         0.24095
C         15.87571        29.22781        -0.23265
C         14.65633        29.90977        -0.10767
C         15.93227        32.12028        -0.37334
C         14.61244        31.37172        -0.30766
C         15.95032        33.54073        -0.00679
C         14.76994        34.23449         0.18106
C         16.03372        36.38580         0.27467
C         14.79091        35.68460         0.31818
C         16.04418        37.82769         0.30269
C         14.82081        38.53503         0.32572
C         18.41756         3.45607         0.46062
C         17.19879         4.12645         0.03806
C         18.50840         6.21495        -0.36067
C         17.22080         5.50899        -0.26423
C         18.53109         7.66932        -0.23650
C         17.20515         8.37726        -0.09901
C         18.56322        10.52264        -0.36200
C         17.30207         9.79987        -0.59821
C         18.53236        11.97721        -0.62317
C         17.27103        12.72394        -0.34414
C         18.63476        14.80680         0.14665
C         17.31601        14.12154         0.03832
C         18.66118        16.33343         0.30640
C         17.37136        17.05544         0.44502
C         18.53433        19.22433         0.11506
C         17.30444        18.43061         0.37178
C         18.40212        20.64086        -0.27281
C         17.18869        21.33228         0.04500
C         18.35987        23.43908        -0.40452
C         17.18693        22.76360         0.00951
C         18.48726        24.88089        -0.21272
C         17.18490        25.68736         0.15944
C         18.36566        27.78035        -0.49539
C         17.14934        27.10876        -0.17339
C         18.38559        29.21035        -0.60095
C         17.13671        29.94623        -0.43091
C         18.41223        32.09638        -0.61117
C         17.16970        31.33086        -0.38216
C         18.52115        33.47056        -0.04257
C         17.23397        34.21621         0.23704
C         18.50606        36.35474         0.15159
C         17.26743        35.68367         0.22873
C         18.50729        37.79549         0.20739
C         17.28857        38.49767         0.29271
C         19.62415         4.07190         0.51590
C         20.93907         6.26869         0.42455
C         19.80461         5.44269         0.01458
C         20.92578         7.61912         0.24881
C         19.72327         8.35823        -0.07811
C         20.97140        10.57786         0.02217
C         19.73789         9.83248        -0.13241
C         21.03219        11.92043        -0.15928
C         19.85811        12.69676        -0.58810
C         20.98863        14.89802        -0.59807
C         19.85842        14.16607        -0.36972
C         20.97964        16.32702        -0.54400
C         19.85628        17.02883        -0.20238
C         20.77542        19.23355        -1.09857
C         19.83133        18.51023        -0.23780
C         20.62605        20.55717        -1.34024
C         19.48857        21.30824        -0.85620
C         20.51219        23.48421        -1.57300
C         19.45494        22.74224        -0.97928
C         20.52775        24.87114        -1.57077
C         19.55352        25.61296        -0.87256
C         20.76240        27.74802        -1.06541
C         19.56592        27.04364        -0.78900
C         20.79189        29.12669        -1.05109
C         19.61056        29.87374        -0.84857
C         20.94057        32.09847        -0.66971
C         19.68969        31.35380        -0.89917
C         20.94681        33.45836        -0.48130
C         19.76635        34.22787        -0.23962
C         20.94946        36.40543        -0.09983
C         19.75545        35.64409        -0.03983
C         20.93846        37.79839         0.01468
C         19.74424        38.49455         0.15482
O         18.88144        15.43875         1.44560
O          9.13943        31.87317         2.32712
O         19.24683        12.32980        -1.87118
O         11.39639        10.26169        -1.77976
O          1.76782        35.76235        -2.56543
O         19.40257         5.65132        -1.37100
O         14.07980         8.14647        -2.19262
O         16.75729        10.13313        -1.89924
O          8.71177        15.54322        -0.88339
O          6.51372        27.24284         2.49847
O         15.71528        16.51555         2.18275
O          4.07273        37.07318        -2.51853
O          1.87245         8.08797        -1.86244
O          8.11367         9.96991         1.86893
O         15.13212        31.83939        -1.59992
O         11.54590        12.75553        -1.31392
O         14.30451        14.10910         1.89703
O          6.55202        29.77704         2.51353
O         18.00097        33.56580         1.33044
O          5.10613        22.05181        -1.16440
O          7.66750        36.34363         1.40602
O         13.01525        18.78412         2.39175
O         18.19162        25.32543         1.14456
O         11.83061        25.32956         2.36997
O          4.62710        31.17056        -1.40818
O         14.11468         5.55777        -2.06558
O         19.61360        19.06248         1.10431
O         18.88680        31.97027        -1.98855
O          6.64952        12.28043         2.10258
O         11.93265        33.97888         2.13686
O          4.14346        30.57133         2.12297
H          4.85540        30.52450         2.80600
O          6.73742        33.06110        -1.79902
H          6.05714        32.44460        -2.16322
O          2.09441        21.27907         1.74196
H          1.21245        21.69219         1.86370
O          8.42001        23.33401         2.75296
H          9.14663        23.85469         3.15879
O          3.41356        16.33986         2.11197
H          2.56640        15.88926         2.31460
O          9.75640        14.12282         2.28433
H         10.56136        13.70633         2.65779
O         16.95229         8.52314         1.34872
H         17.03151         7.63635         1.75998
O          8.47965        19.04643         2.60747
H          9.20229        19.59032         2.98935
O          8.91075        37.37338        -1.82402
H          8.93406        38.19374        -2.36075
O         11.75018        31.43707        -1.36618
H         12.57057        31.29804        -1.88899
H          1.23426         2.27281        -0.26624
H         -0.93682         3.49624        -0.35881
H         -0.97560         5.96679        -0.51275
H         -1.00562         7.93555        -0.20804
H         -0.95472        10.35031        -0.15932
H         -0.93952        12.22947        -0.58546
H         -0.93052        14.65095        -0.53279
H         -0.82641        16.48617        -0.99005
H         -0.81993        18.90763        -1.08847
H         -0.84595        20.81923        -0.98940
H         -0.87700        23.22467        -0.81006
H         -0.90464        25.09522        -0.73457
H         -0.92852        27.51830        -0.69111
H         -0.95511        29.41605        -0.61645
H         -0.91003        31.84256        -0.73461
H         -0.82058        33.73744        -0.32002
H         -0.82789        36.16775        -0.54211
H          0.37396        38.31400        -0.98265
H          3.66385         2.28677        -0.21809
H          2.48270        39.53364        -0.93879
H          6.12592         2.27612        -0.13611
H          4.92504        39.55126        -0.51577
H          8.59696         2.27139        -0.06516
H          7.37287        39.59072        -0.34792
H         11.06034         2.27218        -0.04401
H          9.92157        39.64260        -0.11649
H         13.51531         2.30527         0.06788
H         12.36017        39.64760         0.23311
H         15.97357         2.36707         0.40267
H         14.83422        39.63500         0.32656
H         18.32159         2.41815         0.81329
H         17.30592        39.59713         0.33073
H         20.49270         3.55564         0.95171
H         21.81591         5.77786         0.87258
H         21.83126         8.18157         0.51296
H         21.88344        10.05108         0.33244
H         21.96024        12.46175         0.07500
H         21.90772        14.39646        -0.93107
H         21.89151        16.85605        -0.85160
H         21.59764        18.68308        -1.57604
H         21.37041        21.06516        -1.96745
H         21.33489        22.95854        -2.07403
H         21.34035        25.39204        -2.09532
H         21.68978        27.19265        -1.25709
H         21.73932        29.64623        -1.24548
H         21.90050        31.56547        -0.71389
H         21.92240        33.96353        -0.43552
H         21.91408        35.89847        -0.23550
H         21.88914        38.34829        -0.02636
H         19.74383        39.59210         0.21549
