         294
 CSIRO Nanostructure Databank - Neutral Graphene Oxide Data Set
C          1.46568         2.23286        -1.69984
C          1.35291         3.58370        -1.55839
C          2.73666         1.58205        -1.81087
C          2.54133         4.45259        -1.52856
C          1.28048         6.55138        -0.45441
C          1.31631         7.87405        -0.20907
C          2.51296         5.83009        -0.91062
C          2.59668         8.69046        -0.10743
C          1.46246        11.01537        -0.17330
C          1.54814        12.40543        -0.34990
C          2.51419        10.12557        -0.62750
C          2.69348        13.04210        -0.79790
C          1.53894        15.29253        -0.79977
C          1.55189        16.58609        -0.38059
C          2.77377        14.50699        -1.15728
C          2.74682        17.30795        -0.06957
C          2.66159        18.58833         0.50264
C          3.92302         2.29330        -1.82117
C          3.90889         3.81649        -1.84971
C          5.18513         1.63325        -1.78880
C          5.04875         4.24378        -0.86857
C          3.74411         6.44389        -0.22588
C          3.79612         7.90839        -0.75606
C          5.11840         5.68444        -0.27888
C          5.09769         8.63747        -0.50931
C          3.88061        10.79840        -0.84892
C          3.99999        12.31098        -0.94353
C          5.09412        10.03423        -0.52699
C          4.95802        12.92481         0.10025
C          4.10259        15.21451        -0.70172
C          4.06431        16.67143        -0.29785
C          5.37478        14.39208        -0.32713
C          5.32564        17.34293         0.28051
C          3.77581        19.26594         0.97445
C          5.07475        18.67119         0.97293
C          6.40032         2.29119        -1.54086
C          6.42132         3.80720        -1.46980
C          7.58029         1.57509        -1.28259
C          7.61255         4.39319        -0.74463
C          6.35095         6.50657        -0.57348
C          6.31790         7.91933        -0.38078
C          7.60301         5.82073        -0.55141
C          7.53471         8.62929        -0.06831
C          6.25397        10.73965        -0.02873
C          6.16345        12.07764         0.35759
C          7.47633        10.01487         0.17975
C          7.08425        12.60220         1.42725
C          6.16407        14.96025         0.86024
C          6.15178        16.41767         1.18593
C          6.89896        14.09065         1.60541
C          7.36273        17.13051         1.77738
C          6.14463        19.30908         1.53784
C          7.49163        18.65598         1.68462
C          8.74687         2.20980        -0.79615
C          8.74555         3.63792        -0.55282
C          9.93069         1.46866        -0.55954
C         10.07416         4.28792        -0.25277
C          8.80308         6.51991        -0.18535
C          8.75816         7.89264         0.07607
C         10.00412         5.74476         0.15310
C          9.92522         8.57709         0.76020
C          8.69145        10.80545         0.49354
C          8.54390        12.17242         1.12716
C         10.03232        10.06999         0.41646
C          9.77487        12.76844         1.77853
C          8.73175        15.13184         2.24215
C          8.66632        16.42906         1.86666
C          9.91404        14.25638         2.15146
C          9.89227        17.13124         1.38534
C          8.48535        19.00371         0.60027
C          9.64242        18.30250         0.50013
C         11.07160         2.04598         0.02413
C         10.89319         3.40963         0.69011
C         12.29861         1.37352        -0.02979
C         12.20793         4.07328         1.11428
C         11.09930         6.34922         0.69739
C         11.26584         7.84602         0.50642
C         12.18612         5.58752         1.42946
C         12.41288         8.47233         1.27355
C         11.13680        10.71158         1.23051
C         11.05827        12.01581         1.57646
C         12.32483         9.90097         1.75861
C         12.30413        12.73566         2.03485
C         11.17242        14.90400         1.67059
C         11.18460        16.35511         1.28371
C         12.24398        14.10788         1.38684
C         12.23141        16.78488         0.26235
C         10.63647        18.59664        -0.51368
C         11.79093        17.90392        -0.65496
C         13.52884         1.97453         0.32109
C         13.49126         3.32408         0.95097
C         14.74315         1.32927         0.06484
C         14.78763         4.06358         1.08017
C         13.52226         6.30744         1.35326
C         13.56604         7.71380         1.49512
C         14.77507         5.59332         0.90804
C         14.81819         8.30426         2.17702
C         13.65077        10.65493         1.66993
C         13.59588        12.01162         1.70976
C         14.84176         9.93314         2.32399
C         14.81413        12.91575         1.77832
C         13.33103        14.56719         0.54648
C         12.96393        15.66281        -0.47999
C         14.58357        14.05133         0.74544
C         14.16538        16.59829        -0.60925
C         12.69365        18.24598        -1.82926
C         14.09677        17.82896        -1.47119
C         16.01710         1.94116         0.24119
C         16.05788         3.32573         0.78582
C         17.21268         1.33392        -0.12084
C         17.29373         4.11887         0.47792
C         16.11272         6.15428         1.50775
C         16.15110         7.67372         1.71850
C         17.29770         5.59649         0.70189
C         17.41213         8.43467         1.38648
C         16.26248        10.62746         2.04205
C         16.14807        12.13694         1.60764
C         17.29791         9.88875         1.20817
C         17.24831        12.76339         0.78567
C         15.73694        14.75574         0.15193
C         15.43483        15.79903        -0.90201
C         17.07559        14.11774         0.13790
C         16.64540        16.66201        -1.24223
C         15.18939        18.60679        -1.61872
C         16.53285        18.17160        -1.06223
C         18.47388         2.03247        -0.10145
C         18.53692         3.36830         0.26037
C         19.68294         1.39415        -0.63261
C         19.74445         4.17279        -0.14688
C         18.58070         6.35024         0.67164
C         18.61264         7.69411         0.86087
C         19.87871         5.58223         0.48414
C         19.96396         8.39057         1.01060
C         18.55148        10.59584         0.90951
C         18.40926        11.94404         0.29478
C         19.87725         9.91163         0.77119
C         19.59216        12.64078        -0.28140
C         18.08397        14.54056        -0.92523
C         17.98850        16.03287        -1.24017
C         19.49782        14.15814        -0.39232
C         19.21537        16.92352        -1.07059
C         17.72302        18.83997        -1.70667
C         18.96148        18.25556        -1.76375
C         20.87153         2.03007        -0.68007
C         21.04994         3.37152         0.00548
C         22.19614         4.22342        -0.50993
C         20.90779         6.39624        -0.35529
C         21.11611         7.75587         0.26419
C         22.15603         5.56316        -0.58859
C         22.30718         8.49416         0.17467
C         20.96160        10.52247        -0.15205
C         20.99084        12.07156        -0.10443
C         22.27958         9.87688         0.17434
C         21.88437        12.69409        -1.16068
C         20.58547        14.80042        -1.22448
C         20.46490        16.17306        -1.52939
C         21.69861        13.96994        -1.60801
C         21.45149        16.89453        -2.23085
C         20.06342        18.89796        -2.42088
C         21.26211        18.23598        -2.61864
O         19.60387        10.61241         2.01005
O         15.57573         3.46700         2.15234
O          4.34498        16.26059        -1.69360
O         10.95065        17.28118         2.38839
O          9.79362        13.20047         3.16672
O         16.77493        15.16670         1.10555
O          6.23265        16.73469         2.60799
O         17.13924         7.97012         2.76170
O          7.56872        14.52589         2.77078
O         13.68015        17.17437         0.74012
O         14.57490        10.19940         3.66640
O         17.28153        16.27962        -2.50123
O          2.43099         5.67455        -2.35815
O          8.75830        12.05868        -0.31196
O         17.04305         5.07708        -0.67425
O         17.24976        12.86899         2.24225
O          3.05195        10.34156        -1.97449
O          5.59839         5.55014         1.07152
O         12.76379         3.33063         2.24829
O         18.67842        11.89809        -1.14807
O         19.62900        14.61105         0.97571
H         19.58994        15.60693         0.98927
O          6.22038        17.65501        -0.81788
H          5.97975        17.05264        -1.56427
O         14.64366         5.87980        -0.51079
H         15.44290         5.54167        -0.98994
O         14.67815         7.78454         3.51689
H         14.72076         8.59960         4.10686
O         16.84711        10.60258         3.35314
H         17.60116        11.23617         3.35732
O         19.54790         4.32210        -1.59037
H         18.60886         4.60494        -1.71309
O          6.68577        12.00062         2.69030
H          7.12416        12.52138         3.40291
O         19.34628        17.21310         0.35334
H         18.54079        17.71614         0.62926
O          6.65736         4.33291        -2.79969
H          5.86830         4.12114        -3.36120
O          3.64984         7.81101        -2.18354
H          3.50838         8.72391        -2.53526
O          9.64622         8.53418         2.17290
H          9.76641         7.61581         2.49666
O          6.26848        14.37999        -1.43921
H          5.83190        13.87341        -2.16579
O          2.79123        14.50965        -2.62038
H          3.16250        15.38568        -2.88307
O         20.64490        10.11135        -1.50149
H         19.81756        10.57980        -1.77096
O         20.32066         8.19602         2.41362
H         19.90993         8.94810         2.91029
O         11.80501         5.69638         2.83593
H         12.30633         4.99775         3.31800
O         10.43175        10.20969        -0.97852
H         10.14447        11.10977        -1.26374
O          8.05714        19.09504         2.94393
H          7.57110        18.63744         3.66208
O         14.86647        13.54087         3.07570
H         15.79571        13.84268         3.20622
O          2.85866         8.91956         1.29598
H          2.98418         8.02133         1.70208
O         21.48181        12.46604         1.19287
H         21.09115        13.34604         1.41130
O          3.34994         6.41974         1.16459
H          4.16953         6.11573         1.66014
O         20.42149         5.44064         1.82126
H         20.39005         6.32453         2.26976
O         10.81587         4.29214        -1.51109
H         10.32911         4.85452        -2.15035
O          4.16622         4.15856        -3.23113
H          3.73031         5.03508        -3.38645
O          4.23456        13.06141         1.35129
H          4.74536        12.61636         2.06635
O         20.35330         6.74064        -1.65321
H         20.22557         5.88481        -2.13416
O          4.56360        12.56240        -2.25780
H          3.90142        12.25103        -2.91343
O         12.29074        12.87493         3.46391
H         13.20072        13.12883         3.74829
O         12.05163         9.70478         3.17512
H         12.90603         9.91226         3.66666
O         15.06276        15.06070        -2.10007
H         15.89025        14.98664        -2.64340
O         10.11108         3.21891         1.88269
H         10.71605         2.86016         2.56897
O         16.58645        18.44286         0.36972
H         15.71676        18.20664         0.76581
O          4.79930         3.39303         0.27088
H          5.18023         3.89452         1.04707
O         21.33104         3.03131         1.37851
H         21.24709         3.85646         1.91423
O         16.26565         5.63040         2.83355
H         15.80816         6.25506         3.45062
O         17.74439        13.85679        -2.14176
H         18.37143        14.13661        -2.84057
O         12.36491        15.11384        -1.64956
H         13.09617        14.69522        -2.16261
O         11.67220         7.93821        -0.88854
H         11.45766         8.84225        -1.22571
O         12.23101        17.54962        -2.99771
H         12.12580        16.59723        -2.75368
H          0.55953         1.61056        -1.70827
H          0.36277         4.05412        -1.47403
H          2.76372         0.48235        -1.83936
H          0.31379         6.02330        -0.46553
H          0.38035         8.39287         0.05604
H          0.62372        10.59485         0.39880
H          0.66489        13.00755        -0.08849
H          0.57329        14.83276        -1.05480
H          0.59521        17.10767        -0.22234
H          1.66688        19.04597         0.60744
H          5.18748         0.53057        -1.82721
H          3.65844        20.26142         1.42609
H          7.58167         0.47877        -1.39526
H          6.00426        20.29243         2.01264
H          9.97895         0.42394        -0.90520
H          8.28265        19.84238        -0.08162
H         12.32443         0.37449        -0.49369
H         10.41340        19.41249        -1.21901
H         14.71129         0.31587        -0.36442
H         12.64977        19.34021        -2.05704
H         17.19443         0.30411        -0.50862
H         15.11295        19.57872        -2.13187
H         19.57784         0.38001        -1.04788
H         17.57502        19.83028        -2.16524
H         21.75772         1.52015        -1.08816
H         23.14006         3.70419        -0.74458
H         23.04887         6.10126        -0.94669
H         23.26898         7.96861         0.05230
H         23.20321        10.47161         0.20666
H         22.76437        12.12826        -1.50052
H         22.43967        14.38892        -2.30609
H         22.39277        16.39889        -2.50527
H         19.92486        19.91765        -2.80816
H         22.07953        18.75029        -3.14354
