         404
 CSIRO Nanostructure Databank - Neutral Graphene Oxide Data Set
C          1.24909         1.98053        -0.36809
C          1.22281         3.37394        -0.46019
C          2.46099         1.29910        -0.32567
C          2.41434         4.12786        -0.50122
C          1.19648         6.30559        -0.67585
C          1.20514         7.69346        -0.73371
C          2.40007         5.57758        -0.60267
C          2.41052         8.41501        -0.71949
C          1.36603        10.54214         0.14345
C          1.40748        11.88150         0.41061
C          2.34547         9.91865        -0.82197
C          2.47322        12.71980        -0.02540
C          1.25293        14.86528         0.38101
C          1.25480        16.24194         0.44666
C          2.46242        14.13089         0.16409
C          2.46154        16.98835         0.33219
C          2.48699        18.40699         0.43503
C          3.67683         2.01588        -0.36704
C          3.66208         3.44042        -0.44257
C          4.92963         1.33064        -0.36366
C          4.90255         4.16449        -0.45074
C          3.63706         6.29427        -0.61826
C          3.63835         7.73032        -0.68695
C          4.86467         5.57993        -0.51621
C          4.89664         8.46048        -0.80942
C          3.69199        10.59096        -0.73208
C          3.66126        12.10361        -0.73659
C          4.86691         9.92400        -0.90528
C          4.96582        12.66516        -0.19751
C          3.68291        14.87505         0.09097
C          3.69253        16.27893         0.16262
C          4.96435        14.16362         0.13813
C          4.94094        16.99673         0.09610
C          3.67909        19.10213         0.40763
C          4.92975        18.43474         0.24845
C          6.12763         2.01175        -0.43299
C          6.15011         3.44452        -0.45034
C          7.39555         1.19169        -0.53330
C          7.40736         4.12724        -0.51905
C          6.10669         6.34938        -0.38213
C          6.09672         7.78227        -0.73664
C          7.42882         5.60196        -0.38863
C          7.39033         8.45405        -0.98698
C          6.11563        10.72119        -1.30715
C          6.21222        12.06054        -0.62590
C          7.42448         9.94070        -1.21701
C          7.42231        12.76152        -0.53858
C          6.21118        14.89535        -0.07890
C          6.15329        16.31051        -0.09708
C          7.42254        14.18606        -0.28997
C          7.38923        17.09637        -0.44109
C          6.14651        19.13597         0.33753
C          7.38892        18.48941         0.14507
C          8.66866         1.99306        -0.42039
C          8.62040         3.41967        -0.54602
C          9.87026         1.33916        -0.24108
C          9.90880         4.12755        -0.69112
C          8.66171         6.36785        -0.64860
C          8.66652         7.74753        -0.70781
C          9.93046         5.63768        -0.77677
C          9.90733         8.49037        -0.76180
C          8.69540        10.65596        -0.93861
C          8.68221        12.07331        -0.74330
C          9.88945         9.91129        -0.86689
C          9.90713        12.79422        -0.59924
C          8.66342        14.91748        -0.32643
C          8.67188        16.33265        -0.22068
C          9.90122        14.22034        -0.41092
C          9.88019        17.04361        -0.11718
C          8.60199        19.13631         0.34264
C          9.85171        18.46066         0.17757
C         11.12225         2.04234        -0.10223
C         11.14629         3.45297        -0.27542
C         12.32183         1.36236         0.16761
C         12.32792         4.19770        -0.03202
C         11.16937         6.36811        -0.45239
C         11.14047         7.78926        -0.52779
C         12.33541         5.65543        -0.12538
C         12.37159         8.50932        -0.33213
C         11.19898        10.64228        -1.02874
C         11.14889        12.10254        -0.64657
C         12.38931         9.92055        -0.44596
C         12.35587        12.79819        -0.50624
C         11.12757        14.95035        -0.37667
C         11.14530        16.37756        -0.22984
C         12.35938        14.23772        -0.43331
C         12.37605        17.11534        -0.21999
C         11.05536        19.11209         0.42091
C         12.33064        18.51094         0.21797
C         13.52215         2.08009         0.37721
C         13.49488         3.50431         0.35284
C         14.76186         1.39802         0.57753
C         14.67055         4.25439         0.90786
C         13.55709         6.37522         0.11765
C         13.57022         7.80538        -0.01282
C         14.73817         5.69325         0.47165
C         14.79055         8.52018         0.18206
C         13.58346        10.63217        -0.23812
C         13.60035        12.06900        -0.36424
C         14.80139         9.94318         0.05420
C         14.80745        12.75722        -0.28445
C         13.56893        14.96240        -0.51728
C         13.59282        16.38659        -0.48562
C         14.81834        14.18911        -0.62803
C         14.87227        17.03210        -0.65387
C         13.42645        19.31037         0.63971
C         14.76682        19.14762         0.23187
C         15.98244         2.09105         0.70686
C         15.98126         3.52486         0.78698
C         17.22430         1.39916         0.73526
C         17.17362         4.24192         0.95904
C         15.96309         6.38923         0.65069
C         15.99617         7.82259         0.49878
C         17.14404         5.67336         0.98476
C         17.21255         8.54316         0.65922
C         16.02241        10.66648         0.18887
C         16.04175        12.09284         0.00990
C         17.22397         9.96121         0.48194
C         17.24750        12.82088         0.21209
C         16.13171        14.92139        -0.49996
C         16.09488        16.38280        -0.47203
C         17.29791        14.25602         0.08333
C         17.32770        17.07788        -0.26110
C         15.91274        19.66462         0.83580
C         17.23025        19.24084         0.45733
C         18.44469         2.07574         0.89253
C         18.44008         3.52721         1.05596
C         19.67429         1.37376         0.86282
C         19.62544         4.19601         1.29462
C         18.35973         6.42555         1.32479
C         18.42771         7.86619         1.01028
C         19.65885         5.65671         1.51059
C         19.64717         8.54734         1.10354
C         18.44591        10.67816         0.63703
C         18.44402        12.10286         0.54748
C         19.65927         9.98481         0.92672
C         19.63529        12.82245         0.77531
C         18.38077        15.03585         0.51534
C         18.45176        16.48326         0.34780
C         19.56338        14.28827         0.96794
C         19.67278        17.26450         0.68374
C         18.42766        19.47612         1.07356
C         19.66618        18.76468         0.69878
C         20.91340         2.02162         1.05812
C         20.88536         3.44862         1.44228
C         22.14537         1.37211         0.93569
C         22.20041         4.22510         1.47023
C         20.93663         6.38697         1.31654
C         20.91232         7.83593         1.24064
C         22.13446         5.70073         1.31749
C         22.11980         8.54696         1.15301
C         20.85709        10.71632         1.03511
C         20.85399        12.12841         0.95756
C         22.13539        10.02270         1.42453
C         22.11828        12.84058         0.95628
C         20.84470        15.05760         1.03989
C         20.84259        16.53811         0.91901
C         22.07168        14.29417         0.66852
C         22.16934        17.10664         1.06597
C         20.73723        19.60795         0.43150
C         22.13745        19.23884         0.51758
C         23.39269         2.07777         0.91724
C         23.42085         3.50322         1.05607
C         24.59775         1.38277         0.65378
C         24.61908         4.19788         0.79975
C         23.39977         6.44038         1.24799
C         23.37197         7.88535         0.99700
C         24.69579         5.67929         0.96896
C         24.55091         8.57336         0.63388
C         23.36872        10.72237         0.92079
C         23.32007        12.15395         0.87222
C         24.53316        10.03073         0.59694
C         24.60666        12.88529         0.80831
C         23.30908        15.05462         0.34977
C         23.30512        16.51945         0.56785
C         24.61219        14.37048         0.59105
C         24.47640        17.28534         0.07499
C         23.27793        19.55052        -0.17215
C         24.52495        18.78359        -0.02669
C         25.81908         2.06226         0.47550
C         25.79845         3.48673         0.52805
C         27.05239         1.36138         0.21069
C         27.04181         4.24741         0.32018
C         25.75955         6.44202         0.29670
C         25.70687         7.82797         0.18245
C         26.90480         5.64895        -0.19834
C         26.82008         8.56364        -0.48786
C         25.72826        10.77376         0.22805
C         25.81440        12.14963         0.40022
C         26.84549        10.06364        -0.40614
C         27.04100        12.88998         0.18548
C         25.85780        15.05994         0.22323
C         25.78691        16.50457        -0.10085
C         27.04262        14.36106         0.19513
C         27.04511        17.25562        -0.12493
C         25.73911        19.36947        -0.30523
C         27.00955        18.66716        -0.30103
C         28.25663         2.01147        -0.04620
C         28.28945         3.49485        -0.00442
C         29.48980         1.33322        -0.26644
C         29.40178         4.20403        -0.70664
C         28.15568         6.36087        -0.66032
C         28.13075         7.85216        -0.79371
C         29.45361         5.67423        -0.60345
C         29.42740         8.57746        -0.66153
C         28.18409        10.79532        -0.55197
C         28.20986        12.20785        -0.12308
C         29.44244         9.99448        -0.56115
C         29.46782        12.94554        -0.27637
C         28.30101        15.09268         0.06914
C         28.27598        16.55929        -0.01559
C         29.48517        14.39241         0.02555
C         29.47529        17.28472        -0.13033
C         28.22210        19.36088        -0.47393
C         29.47248        18.69150        -0.41747
C         30.70047         2.00501        -0.52385
C         30.68759         3.44805        -0.86722
C         31.94548         1.35663        -0.54575
C         31.94364         4.22820        -0.86668
C         30.65191         6.36575        -0.67184
C         30.64172         7.83783        -0.58733
C         31.89692         5.63906        -0.80373
C         31.86293         8.52283        -0.33914
C         30.66747        10.66130        -0.32529
C         30.74765        12.14680        -0.37457
C         31.84874         9.92220        -0.13795
C         32.01009        12.81416         0.03385
C         30.80235        15.07129        -0.03587
C         30.77200        16.58419        -0.09301
C         31.99492        14.23405         0.32060
C         31.95592        17.45241         0.07514
C         30.69447        19.37346        -0.71174
C         31.96042        18.75314        -0.50600
C         33.15747         2.06364        -0.76020
C         33.15611         3.48867        -0.91292
C         34.39261         1.34508        -0.64074
C         34.43394         4.18933        -1.11326
C         33.14858         6.41901        -0.84868
C         33.13671         7.81164        -0.32147
C         34.47418         5.68362        -0.95379
C         34.32358         8.42726        -0.01402
C         33.06560        10.60907         0.33724
C         33.13276        12.08102         0.31905
C         34.35139         9.84218         0.42013
C         34.39430        12.70484         0.90776
C         33.14910        14.76894         0.86029
C         33.15321        16.94851         0.57862
C         34.46300        14.20242         0.71055
C         34.42097        17.34148         0.15435
C         33.23791        19.33467        -0.73123
C         34.44032        18.61557        -0.50355
C         35.63092         1.97023        -0.59768
C         35.72179         3.41470        -0.89675
C         36.84317         1.27946        -0.31496
C         36.93125         4.14346        -0.48478
C         35.69347         6.29990        -0.41831
C         35.58224         7.63908         0.26920
C         36.89639         5.56866        -0.28908
C         36.84402         8.45785         0.15313
C         35.63402        10.60916         0.37369
C         35.64849        11.97668         0.51018
C         36.85242         9.82636         0.22248
C         36.90210        12.78272         0.60052
C         35.62617        14.96639         0.52615
C         35.63411        16.49050         0.42144
C         36.89000        14.26465         0.38711
C         36.93887        17.13602        -0.03276
C         35.70198        19.17031        -0.87406
C         36.88860        18.47498        -0.68875
C         38.05140         1.95916        -0.17195
C         38.08719         3.41152        -0.18377
C         39.27885         1.24666         0.05817
C         39.31881         4.09451         0.07945
C         38.11361         6.23021         0.07821
C         38.09820         7.68040         0.32924
C         39.34152         5.52754         0.14879
C         39.41829         8.39576         0.33978
C         38.12308        10.57892         0.03854
C         38.18544        12.02843         0.40259
C         39.42359         9.84534        -0.01043
C         39.42982        12.74979         0.05829
C         38.11198        14.90046         0.03397
C         38.14507        16.30537        -0.26162
C         39.37112        14.15642        -0.10601
C         39.31881        16.95035        -0.70213
C         38.09996        19.05021        -1.13690
C         39.30497        18.34601        -1.09051
C         40.46048         1.90967         0.23733
C         40.51542         3.34705         0.24640
C         41.73874         4.03304         0.41567
C         40.61494         6.20213         0.27080
C         40.68485         7.64545         0.21797
C         41.78406         5.42088         0.39838
C         41.85164         8.39595         0.17789
C         40.69886        10.57923         0.11392
C         40.65226        12.02883        -0.02607
C         41.85511         9.82342         0.19030
C         41.84077        12.75297        -0.26796
C         40.58154        14.83725        -0.43343
C         40.57009        16.24854        -0.76154
C         41.79706        14.11572        -0.47658
C         41.72956        16.93094        -1.14460
C         40.51258        18.98797        -1.49236
C         41.70188        18.29271        -1.50489
O         30.98639        15.75337        -1.33810
O         28.07868         4.06010         1.34608
O         27.22621         5.72246        -1.61703
O         27.26575        10.63744        -1.67796
O         36.53132        17.13178         1.38396
O         29.78655         3.70034        -2.01570
O         21.58749         3.72883         2.70398
O         22.48122        14.55424        -0.74798
O         38.74557         8.08660         1.60945
O         35.22963         3.73071        -2.25154
O         17.33148        18.39861        -0.67597
O         33.04657        15.96337         1.55392
O         22.32348        18.37145         1.62046
O         15.66511        14.42286        -1.81419
O         38.72488        10.23535        -1.25742
O          6.81589         6.05576         0.88928
O         27.19167         8.19425        -1.85126
O         37.71708        12.32547         1.75720
O         33.88377         6.36625        -2.12719
O          7.49804         9.02834        -2.36706
O         33.55079        10.05607         1.65095
O         18.88872         6.10901         2.67320
O         14.91084        18.39069        -0.94881
O         20.17522        14.64978         2.27254
O         30.13550        12.68235        -1.58597
O         10.02419         4.82016        -2.00321
O          4.97089        13.11909         1.18337
O         24.74464        13.81021         1.95406
O         24.36061         6.09770         2.32292
O         24.88795        16.74003        -1.24118
O         34.27298        12.54734         2.35963
H         34.08794        11.58842         2.52357
O          1.85268        10.22406        -2.17009
H          2.12952        11.14972        -2.37812
O         11.43128        10.64120        -2.49080
H         12.27475        11.11581        -2.65339
O         22.21367        10.13464         2.89677
H         21.44964         9.64635         3.27193
O          5.90263        11.02371        -2.72849
H          6.26192        10.25035        -3.22754
O         35.46132         7.29332         1.70137
H         35.42241         8.13294         2.20926
O          7.37994         0.12371         0.42471
H          7.35388         0.51697         1.32092
O          3.57133        12.50503        -2.14404
H          4.34145        12.08668        -2.61083
O         14.40977         4.31844         2.37474
H         15.19494         4.74042         2.78697
O          7.31920        17.29423        -1.90453
H          8.10071        17.82843        -2.16265
H          0.30347         1.42175        -0.33657
H          0.24785         3.87713        -0.50136
H          2.48226         0.20185        -0.26485
H          0.23061         5.78393        -0.68830
H          0.25294         8.23625        -0.80784
H          0.54126         9.93364         0.54193
H          0.61777        12.32421         1.03692
H          0.29935        14.32328         0.44937
H          0.30823        16.78373         0.58862
H          1.53847        18.94767         0.56718
H          4.93767         0.23151        -0.32465
H          3.67769        20.19634         0.51840
H          7.39740         0.69531        -1.54519
H          6.13392        20.20387         0.60479
H          9.86925         0.24390        -0.14000
H          8.61231        20.18743         0.66953
H         12.32497         0.26487         0.23560
H         11.02809        20.16291         0.74643
H         14.77009         0.29824         0.55364
H         13.19018        20.16226         1.29652
H         17.22649         0.30372         0.63405
H         15.80453        20.28922         1.73325
H         19.66262         0.29184         0.66266
H         18.50643        20.24567         1.85647
H         22.15825         0.29178         0.72710
H         20.50101        20.67729         0.29982
H         24.57311         0.28574         0.57599
H         23.26212        20.34099        -0.93765
H         27.02564         0.26127         0.19384
H         25.77162        20.45453        -0.48741
H         29.50888         0.23716        -0.16584
H         28.20134        20.44356        -0.66858
H         31.99432         0.27648        -0.34197
H         30.64932        20.41530        -1.06186
H         34.33936         0.25853        -0.47377
H         33.30530        20.34549        -1.15926
H         36.82028         0.18478        -0.20511
H         35.73206        20.16066        -1.35177
H         39.25171         0.14732         0.06997
H         38.08537        20.07443        -1.53836
H         41.39385         1.34863         0.39073
H         42.66656         3.45654         0.54025
H         42.75739         5.91939         0.50451
H         42.82807         7.89201         0.15122
H         42.83434        10.32022         0.23771
H         42.80499        12.23091        -0.32200
H         42.73859        14.63644        -0.69020
H         42.69693        16.41427        -1.17945
H         40.47769        20.04724        -1.78381
H         42.63429        18.79034        -1.80462
