         651
 CSIRO Nanostructure Databank - Neutral Graphene Oxide Data Set
C          5.81760        31.82955        -0.29576
C          5.79939        33.18691        -0.16421
C          8.35501        27.54503        -0.68884
C          8.32053        28.92189        -0.41823
C          7.08703        29.68427        -0.39809
C          8.27654        31.82113        -0.10421
C          7.05002        31.06590        -0.24962
C          8.26014        33.19710        -0.03565
C          7.02143        33.95525         0.00819
C          8.28374        36.10185         0.60388
C          7.03872        35.31149         0.24774
C          8.25231        37.56353         0.06476
C         11.00508        23.35230        -1.24267
C         10.87233        24.71950        -0.85680
C          9.64785        25.41834        -0.93436
C         10.79327        27.50998        -0.37232
C          9.57771        26.80932        -0.66210
C         10.76586        28.92183        -0.22488
C          9.55874        29.61335        -0.21410
C         10.81591        31.77430         0.01079
C          9.52399        31.04868         0.24299
C         10.84167        33.23121        -0.16890
C          9.50401        33.98605        -0.14954
C         10.80129        36.10320        -0.05446
C          9.53973        35.39039         0.17153
C         10.80894        37.62162         0.03164
C          9.53950        38.31259         0.37881
C         10.81671        40.34621         0.99215
C          9.56942        39.61783         0.75600
C         10.82847        41.76214         1.07223
C         13.79933        19.24781        -1.82022
C         13.10252        20.28076        -1.18761
C         12.23549        21.28369        -1.65220
C         13.28931        23.16211        -0.30846
C         12.15561        22.56430        -1.00756
C         13.28803        24.63587        -0.25020
C         12.04925        25.41150        -0.41536
C         13.16999        27.49565         0.38633
C         12.02085        26.79110        -0.17153
C         13.21309        28.88386         0.39964
C         12.09061        29.63707        -0.28264
C         13.23567        31.81801         0.24516
C         12.00291        31.09839         0.07736
C         13.26218        33.19437         0.37678
C         12.07235        33.97737         0.15141
C         13.37254        36.09626         0.09618
C         12.07480        35.36286         0.09573
C         13.41273        37.58560         0.29582
C         12.10138        38.35109         0.30145
C         13.23857        40.30542         1.50950
C         12.03295        39.65047         0.98938
C         13.25039        41.84184         1.62987
C         12.00084        42.53547         1.17795
C         12.90328        44.84840         1.14407
C         11.94609        43.89339         0.74701
C         13.33193        46.02084         0.52545
C         16.41438        15.19977        -2.06550
C         16.21034        16.42196        -1.41750
C         15.23051        17.31210        -1.87442
C         15.73904        18.98351        -0.15183
C         14.86494        18.50945        -1.20030
C         15.73875        20.33183         0.28152
C         14.54779        21.07256         0.14728
C         15.60283        23.12161         0.76209
C         14.47882        22.48910         0.07832
C         15.29870        24.37854         1.26700
C         14.39785        25.30230         0.60016
C         15.59637        27.50836         1.36769
C         14.27243        26.73811         0.99947
C         15.63646        28.93299         0.96659
C         14.44645        29.58442         0.62061
C         15.78614        31.76506         0.28892
C         14.48194        31.01402         0.21783
C         15.76900        33.18469         0.59966
C         14.48725        33.88687         0.89358
C         15.83868        36.02490         0.92776
C         14.60996        35.33030         0.45192
C         15.81694        37.47631         1.02935
C         14.59567        38.17917         0.92500
C         15.75451        40.37207         0.99912
C         14.58052        39.55870         1.55278
C         15.82530        41.81748         1.29691
C         14.60824        42.49738         1.61341
C         15.85782        44.65374         1.62530
C         14.70052        43.86173         1.86523
C         15.75134        46.04875         1.38428
C         14.56496        46.69624         0.83830
C         15.81354        48.84483         0.50986
C         14.66340        48.02832         0.38780
C         15.83616        50.14300         0.01598
C         18.64528        10.79918        -2.36189
C         18.57007        12.11066        -1.85151
C         17.51751        12.99005        -2.21961
C         18.33277        14.64569        -0.61408
C         17.40372        14.26079        -1.63407
C         18.09979        15.88378         0.14206
C         16.75835        16.60898        -0.01638
C         18.14197        18.81546         0.61860
C         16.79019        18.10306         0.50933
C         18.11076        20.24578         0.91388
C         16.93810        20.99764         0.79134
C         18.04074        23.15044         1.42758
C         16.86194        22.43008         1.08512
C         18.15332        24.58560         1.62049
C         16.99905        25.42837         1.87660
C         18.13970        27.49023         1.46501
C         16.87413        26.75425         1.49017
C         18.16794        28.85183         0.86377
C         16.90829        29.63468         0.83012
C         18.27796        31.72770         0.45520
C         16.99897        30.98434         0.57445
C         18.26762        33.22080         0.69752
C         16.97829        33.80165         1.22834
C         18.23779        35.97565         1.57733
C         16.97714        35.31398         1.17979
C         18.28244        37.50884         1.53067
C         17.03281        38.18120         1.18150
C         18.33960        40.34663         0.86266
C         17.04202        39.60805         0.84900
C         18.32773        41.78115         1.15418
C         17.07107        42.48940         1.31875
C         18.30338        44.62701         1.32411
C         17.10673        43.93249         1.48646
C         18.34055        46.07553         1.52668
C         16.98411        46.83089         1.54065
C         18.32762        49.00735         1.00626
C         17.00810        48.29241         1.19582
C         18.31820        50.28568         0.25914
C         17.03217        50.94112        -0.02421
C         18.26294        53.08722        -0.36683
C         16.99771        52.26720        -0.39565
C         18.22046        54.36263        -1.17282
C         21.10731         6.72652        -3.38223
C         20.97642         7.86743        -2.51512
C         19.79279         8.65151        -2.59990
C         20.80384        10.44935        -1.22716
C         19.72973         9.95329        -2.04595
C         20.74823        11.75582        -0.74062
C         19.62133        12.58573        -0.99956
C         20.65314        14.49197         0.21800
C         19.51025        13.88502        -0.39652
C         20.64769        15.91461         0.42342
C         19.35195        16.63006         0.57151
C         20.63680        18.73452         1.13428
C         19.31435        18.10576         0.71609
C         20.64846        20.24883         1.06354
C         19.35488        20.90632         1.36526
C         20.62847        23.12780         1.31284
C         19.33957        22.42066         1.54276
C         20.63867        24.54831         1.31554
C         19.40245        25.23939         1.52037
C         20.69158        27.41854         1.30612
C         19.42931        26.70820         1.58712
C         20.67894        28.81035         1.28099
C         19.49928        29.55073         0.82585
C         20.69802        31.71708         0.98514
C         19.54416        31.02532         0.73117
C         20.80993        33.21800         0.73316
C         19.52175        33.93805         1.02936
C         20.75894        36.02777         1.51469
C         19.52553        35.27854         1.35362
C         20.79300        37.45835         1.60815
C         19.59516        38.16412         1.39987
C         20.88122        40.32971         1.41264
C         19.65231        39.58902         1.07573
C         20.83451        41.74229         1.34049
C         19.56998        42.43030         1.20538
C         20.84579        44.64653         1.11675
C         19.54434        43.89383         1.03049
C         20.78941        46.11418         1.26974
C         19.60923        46.81883         1.27534
C         20.78994        48.92528         0.73154
C         19.61238        48.26439         1.07043
C         20.79018        50.26549         0.14276
C         19.49154        50.85821        -0.15563
C         20.69384        52.85149        -1.21714
C         19.43480        52.20596        -0.76990
C         20.69056        54.35513        -1.20216
C         19.39259        55.02949        -1.49055
C         20.64154        56.98312        -2.44349
C         19.42909        56.30879        -2.10890
C         20.59606        58.14142        -3.29647
C         23.79036         4.56258        -4.82216
C         22.52329         5.10104        -4.58739
C         23.44244         6.34620        -2.65198
C         22.31004         6.04909        -3.54915
C         23.30681         7.57385        -1.70102
C         22.05161         8.32062        -1.72832
C         23.21312        10.20378        -0.52892
C         21.89779         9.49161        -0.78597
C         23.12445        11.49001         0.18957
C         21.84935        12.29281         0.10237
C         23.06791        14.40704         0.68391
C         21.89936        13.76714         0.33393
C         23.07663        15.88368         1.02030
C         21.83081        16.60077         0.57050
C         23.10366        18.77154         0.56917
C         21.78631        18.08518         0.34027
C         23.06352        20.27757         0.42849
C         21.82064        20.95903         0.98677
C         23.06973        23.14750         0.97082
C         21.83547        22.41787         1.09433
C         23.11247        24.55549         1.00053
C         21.88109        25.27322         1.17857
C         23.11590        27.44121         0.81547
C         21.90210        26.68559         1.20832
C         23.11666        28.93587         0.95371
C         21.91883        29.52456         1.71227
C         22.89399        31.75193         1.96577
C         21.83498        31.01976         1.52595
C         23.12205        33.14865         1.71120
C         21.99286        33.90681         1.38270
C         23.17210        35.98955         2.02658
C         21.98826        35.32198         1.55838
C         23.27558        37.43852         2.02653
C         22.07282        38.16342         1.73981
C         23.32798        40.32450         1.76946
C         22.08305        39.59863         1.66427
C         23.29572        41.74403         1.70150
C         22.07670        42.47859         1.51414
C         23.27963        44.66295         1.39771
C         22.07194        43.90132         1.45553
C         23.27564        46.01116         1.09274
C         22.08545        46.85891         1.42472
C         23.23374        48.87209         0.49903
C         22.06390        48.23008         0.78860
C         23.28398        50.37824         0.37408
C         21.96993        50.92032        -0.15018
C         23.20864        52.96260        -1.02170
C         22.01262        52.05909        -1.15884
C         23.18398        54.24168        -1.81279
C         21.95751        55.07756        -1.49994
C         23.15330        57.08198        -2.42095
C         21.89193        56.41970        -2.09546
C         23.07506        58.32376        -3.37074
C         21.73968        58.69530        -3.87444
C         22.86210        60.03662        -5.59557
C         21.69165        59.60762        -4.96288
C         24.91399         4.97459        -4.09960
C         25.90039         6.46064        -2.38804
C         24.79906         5.92265        -3.04839
C         25.80329         7.64360        -1.57899
C         24.54318         8.26043        -1.32828
C         25.69052        10.23347        -0.43314
C         24.46645         9.58138        -0.77181
C         25.67689        11.54980         0.21841
C         24.38849        12.19543         0.60000
C         25.50594        14.43230         0.09225
C         24.39583        13.70732         0.91539
C         25.51322        15.93093         0.36048
C         24.34873        16.60502         0.59553
C         25.55783        18.80539         0.76479
C         24.27600        18.07502         0.61933
C         25.54773        20.28169         0.69080
C         24.36760        20.94869         0.76726
C         25.64757        23.17160         0.75650
C         24.34959        22.40933         0.97018
C         25.55767        24.61159         0.54750
C         24.36355        25.29426         0.76870
C         25.59918        27.45846         0.46539
C         24.39124        26.73029         0.65843
C         25.64186        28.91682         0.54662
C         24.39631        29.74587         0.74033
C         25.75291        31.70067         1.47390
C         24.76848        30.81909         1.73642
C         25.74706        33.03765         2.27232
C         24.34995        33.75556         2.12138
C         26.06281        36.18288         2.64605
C         24.20218        35.10045         2.45770
C         25.83235        37.53759         2.29405
C         24.55169        38.17541         2.12819
C         25.83392        40.33983         1.83257
C         24.56936        39.60041         1.92532
C         25.85363        41.75533         1.68999
C         24.57188        42.48672         1.83516
C         25.80654        44.66450         1.20615
C         24.56760        43.97568         1.62388
C         25.75222        45.92226         0.69723
C         24.44881        46.62549         0.39236
C         25.76011        48.85233         0.15422
C         24.51839        48.14015         0.57928
C         25.69587        50.23636        -0.37569
C         24.51591        50.92278        -0.33032
C         25.60686        52.77468        -1.67007
C         24.53037        52.41446        -0.59526
C         25.68888        54.25060        -1.87230
C         24.46380        55.07332        -1.61153
C         25.58918        56.89650        -2.97263
C         24.41926        56.35751        -2.39641
C         25.50035        58.04831        -3.83219
C         24.28072        58.64338        -4.15786
C         24.12487        59.55830        -5.23395
C         26.98823         8.29814        -1.17910
C         28.15578        10.27371        -0.26606
C         26.95134         9.59476        -0.61187
C         28.16030        11.65445         0.06281
C         26.91378        12.34943         0.16919
C         28.07785        14.45743         0.33623
C         26.86469        13.74757         0.24807
C         28.06514        15.92278         0.45345
C         26.80227        16.66065         0.01205
C         28.09085        18.83912         0.31232
C         26.84026        18.07433         0.56689
C         28.09270        20.24175         0.28573
C         26.78354        20.96660         0.14457
C         28.04863        23.10425         0.09448
C         26.87948        22.44364         0.37592
C         28.00626        24.55319        -0.21380
C         26.74176        25.31949         0.03972
C         28.06864        27.45434         0.07073
C         26.81449        26.77769         0.20945
C         28.04640        28.94599         0.08611
C         26.79808        29.63959         0.44657
C         28.14825        31.76720         0.90090
C         26.80676        31.18681         0.48548
C         28.12562        33.23256         1.18973
C         26.91448        33.93772         1.78546
C         28.32557        36.04592         1.80411
C         27.12900        35.37872         2.18527
C         28.40692        37.48923         2.12755
C         27.09704        38.28212         2.25969
C         28.33535        40.38471         1.78224
C         27.09842        39.70031         1.92058
C         28.32133        41.79090         1.57352
C         27.06896        42.45902         1.56155
C         28.24825        44.46460         0.61552
C         27.11802        43.98223         1.55643
C         28.27190        45.97922         0.60089
C         26.97614        46.60613         0.20821
C         28.25691        48.78206        -0.32042
C         26.97725        48.04721        -0.15329
C         28.19621        50.13264        -0.76727
C         26.95089        50.83816        -0.86143
C         28.14794        52.79695        -1.78345
C         26.93346        52.13013        -1.39174
C         28.09643        54.11884        -2.29984
C         26.88097        54.86853        -2.30404
C         26.82307        56.19709        -2.82959
C         29.36276        12.38764         0.21454
C         30.56898        14.52438         0.51523
C         29.33535        13.78198         0.37730
C         30.67030        15.90245         0.45195
C         29.37883        16.67528         0.41086
C         30.40781        18.86967        -0.27897
C         29.28064        18.12230         0.06932
C         30.51777        20.23680        -0.00136
C         29.31271        20.95876         0.19552
C         30.53543        23.08829        -0.02561
C         29.33160        22.40893         0.08433
C         30.59088        24.54018        -0.32977
C         29.28635        25.31518        -0.36308
C         30.58054        27.49492        -0.30320
C         29.26884        26.76169        -0.10772
C         30.54987        28.84160         0.40887
C         29.33813        29.70555         0.20302
C         30.61002        31.71855         1.25275
C         29.31169        31.08107         0.78693
C         30.60208        33.21797         0.98406
C         29.43380        33.93754         1.14715
C         30.77563        36.02470         1.43162
C         29.45198        35.36782         1.30420
C         30.87276        37.48291         1.77150
C         29.62023        38.26774         1.80779
C         30.89437        40.37495         1.82849
C         29.59517        39.64259         1.79315
C         30.88682        41.91218         1.73171
C         29.57342        42.55446         1.43434
C         30.83592        44.69260         1.06891
C         29.56872        43.85184         1.01218
C         30.78082        45.99095         0.30395
C         29.53624        46.74830         0.35590
C         30.69461        48.72018        -0.65874
C         29.47091        48.10540        -0.21930
C         30.63975        50.05226        -1.12349
C         29.42022        50.77570        -1.17159
C         29.37344        52.10608        -1.65224
C         31.96005        16.53086         0.70106
C         33.29264        18.74669         0.55663
C         32.30617        17.79135         0.21457
C         33.15880        20.15022         0.28274
C         31.82879        20.86115         0.28016
C         33.07901        23.11597         0.11753
C         31.80549        22.39343         0.28865
C         33.06472        24.51253        -0.02898
C         31.85972        25.26690        -0.11023
C         33.04970        27.36809         0.24670
C         31.85044        26.68796         0.00121
C         33.09574        28.75972         0.72597
C         31.80680        29.51395         0.81662
C         33.14445        31.69227         0.93605
C         31.82175        31.01837         0.59090
C         33.13753        33.19184         0.80816
C         31.84461        33.90647         0.48085
C         33.10420        36.04518         0.52144
C         31.96768        35.37179         0.83398
C         33.09668        37.57137         0.47567
C         32.22091        38.16769         1.59403
C         33.40584        40.33370         1.38480
C         32.12038        39.66343         1.49941
C         33.40474        41.86766         1.23153
C         32.11418        42.58176         1.22259
C         33.23707        44.53155         0.20236
C         32.06802        43.87697         0.76606
C         33.16456        45.85258        -0.24253
C         31.93972        46.60505        -0.20477
C         31.89137        47.95404        -0.66235
C         34.30136        20.95545         0.31542
C         35.54862        23.06836         0.08541
C         34.31763        22.38390         0.16666
C         35.62982        24.48830        -0.04614
C         34.34641        25.21302        -0.21502
C         35.61492        27.42171         0.16853
C         34.33383        26.71702        -0.02208
C         35.62743        28.79581         0.23027
C         34.40597        29.51503         0.65110
C         35.54793        31.68329         0.28347
C         34.40232        30.98883         0.61753
C         35.51642        33.14405         0.20839
C         34.37223        33.86645         0.38643
C         35.60514        36.05132         0.19639
C         34.29107        35.30852        -0.09635
C         35.53836        37.52942        -0.26612
C         34.45117        38.24582         0.51611
C         35.77284        40.31373         0.47060
C         34.55147        39.57932         0.80135
C         35.74739        41.71457         0.37266
C         34.56166        42.48028         0.54487
C         34.45178        43.78728         0.08083
C         36.82036        25.18963        -0.05779
C         37.93385        27.41929        -0.68233
C         36.92984        26.68002         0.16579
C         37.91450        28.82719        -0.76526
C         36.78906        29.55819        -0.15452
C         37.71834        31.67683        -0.95638
C         36.73000        30.94589        -0.19207
C         37.56658        33.01994        -1.08459
C         36.83549        33.82479        -0.05696
C         38.03439        36.00268        -0.45815
C         36.83073        35.31482        -0.30002
C         38.05407        37.43361        -0.30985
C         36.89882        38.19437        -0.11128
C         36.93605        39.58595         0.10404
C         38.91679        29.53470        -1.44223
C         40.20262        31.70702        -1.25289
C         38.88661        31.02170        -1.67926
C         40.44451        33.03254        -1.07678
C         39.44685        34.09372        -1.21275
C         39.32420        35.28309        -0.55763
O         22.12055        11.48331         1.29934
O         14.49151        25.21594        -0.86051
O         19.76649        52.29014        -2.20280
O         29.97555        24.93501        -1.62358
O         25.09226        35.56913         3.41731
O         17.69482        46.51338         2.76840
O         25.10431        11.45222         1.63597
O         35.07974        37.69383        -1.58563
O         34.33747        26.08697        -1.38252
O         27.10914        33.89196         0.34445
O         21.47259        54.94229        -0.11768
O         14.58206        27.12882         2.35234
O         19.33396        21.50662         2.70329
O         15.82389        15.90760         0.76392
O         22.76164        28.35463        -0.33099
O         18.90378        28.91156        -0.39542
O         31.00027        41.27066         3.01725
O         33.75675        41.23242         2.49482
O         17.55828        49.11583         2.26428
O         23.17780         6.18464        -1.24188
O         31.48930        18.22340        -0.85480
O         12.97741        38.38405        -0.87432
O         13.57500        44.51652         2.34627
O         15.88913        24.78706         2.45728
O         19.16605        39.94984        -0.27771
O         24.63640        43.42463         2.99347
O         33.90902        28.95745         1.93398
O         18.80671        27.35201         2.77562
O         10.21979        33.66212        -1.41895
O         26.83873        47.00612        -1.21820
O         13.36585        20.36975         0.21033
O         30.93298        28.90870         1.81653
O         18.26822        32.69922        -0.66702
O         13.00224        40.98807         2.79507
O         18.17721        36.73916         2.80549
O         28.64426        16.43556         1.68089
O         25.41447        48.70080         1.59629
O         33.16207        32.54861         2.12487
O         10.76807        37.00506        -1.29110
O         31.72845        21.62483         1.53962
O         20.25855        44.28246        -0.20459
O         18.53954        15.86069         1.52173
O         23.23849        58.47482        -1.94950
O         28.69723        29.58271        -1.09435
O         16.19969        39.97315        -0.31985
O         27.10418        24.84603        -1.34294
O         30.95913        36.47771         2.83457
O         15.20528        31.30253        -1.03329
O         38.33888        33.71645        -2.02130
O         27.90621        37.90416         3.43771
O         28.87429        46.64003         1.73539
O         26.33114        18.25859         1.91433
O         14.30179        35.59640        -0.93838
O         25.19559        22.78365         2.11874
O         23.85741        31.10897         2.76301
O         24.46245        55.48553        -0.20903
H         25.34195        55.86291         0.00163
O         30.69325        27.78481        -1.72136
H         30.52170        26.94183        -2.20101
O         37.45027        26.77520         1.55662
H         37.37182        27.71217         1.83902
O         24.98188        53.02918         0.64126
H         24.36027        52.73634         1.34801
O         16.33111        18.03453         1.87738
H         15.90630        17.12350         1.93578
O         24.15454        30.48735        -0.48472
H         23.77728        29.85280        -1.13565
O         37.59719        33.64676         1.19483
H         37.08641        34.11662         1.89259
O         38.75526        31.21181        -3.11211
H         38.66658        32.18261        -3.25719
O         27.45059        44.40131         2.89627
H         26.69477        44.15072         3.47451
O         23.05595        15.97775         2.47930
H         23.71409        15.32109         2.81744
O         34.11411        35.24287        -1.52250
H         33.25079        34.79942        -1.69651
O         23.07385        53.91876        -3.22646
H         23.61028        53.09653        -3.37781
O         32.56897        37.89964        -0.82577
H         33.37023        37.80111        -1.44068
O         22.95107        20.53508        -1.02222
H         22.19194        19.98833        -1.34328
O         31.69131        31.11611        -0.84946
H         31.66554        32.06999        -1.11760
O         23.43122        50.87067         1.75970
H         24.14518        50.32475         2.16860
O         27.95624        44.01867        -0.73081
H         27.30126        44.62578        -1.13715
O         21.46128         8.92488         0.49869
H         21.48476         9.66691         1.15209
O         25.98862        32.76167         3.65464
H         25.27397        32.16459         3.96847
O         14.90280        39.32832         2.95386
H         14.34321        39.95165         3.48004
O         21.42604        18.27638        -1.07642
H         22.05989        17.76194        -1.62048
O         30.67777        31.54394         2.68298
H         31.53103        31.93114         2.99043
O         21.01225        33.36737        -0.71214
H         20.17511        33.06987        -1.14556
O         14.30409        33.97081         2.37445
H         14.03933        33.08006         2.69092
O         12.44101        29.64803        -1.70666
H         13.28791        30.13632        -1.81086
O          8.06237        37.55153        -1.34819
H          8.92336        37.29318        -1.75967
O         16.98677        33.45366         2.65941
H         16.15943        33.83881         3.03811
O         31.73802        33.85546        -1.00463
H         30.89554        34.29235        -1.25897
O         24.18509        46.43112        -1.03635
H         25.02395        46.64481        -1.51672
O         25.13849        14.28194        -1.31097
H         25.77312        14.82867        -1.82879
O          8.30519        36.24113         2.06562
H          8.18847        35.35038         2.45823
O         35.73772        36.04770         1.64959
H         36.41858        36.70990         1.89608
O         26.50849        20.87343        -1.32494
H         27.11362        21.49811        -1.78227
O         26.86647        16.73371        -1.44699
H         26.25781        17.44064        -1.75032
O         22.14322        29.19499         3.11090
H         21.32179        29.37877         3.61243
O         20.85483        18.39163         2.51658
H         20.12807        18.77184         3.05385
O         22.16273        51.37609        -2.44955
H         21.25710        51.34578        -2.84659
O         25.09811        52.14736        -2.90847
H         25.79834        52.23006        -3.59074
O         26.53395        31.62322        -0.85863
H         27.17337        31.16001        -1.44409
O         18.51595        53.46378         1.02525
H         17.75851        53.99918         1.34082
O          9.44698        30.95246         1.72754
H          8.65826        30.40744         1.93954
O         30.97977        45.08015         2.47778
H         30.18454        45.62339         2.70286
O         22.20717        47.12515         2.87185
H         21.44000        47.67622         3.13962
O         24.74317        13.86937         2.30597
H         25.03174        12.97925         2.63212
O         33.00585        37.94864         2.79455
H         32.42710        38.08750         3.57450
H          4.87287        31.28087        -0.42673
H          4.84180        33.72789        -0.18167
H          7.41732        27.01213        -0.90728
H          6.14269        29.13992        -0.55280
H          6.08120        35.85402         0.29211
H          7.38169        38.09329         0.52702
H         10.14950        22.87389        -1.74191
H          8.73368        24.87442        -1.21443
H          8.62524        40.16041         0.91806
H          9.88147        42.28812         0.87902
H         13.50361        18.95002        -2.83696
H         11.63468        21.12298        -2.55893
H         11.13243        44.19025         0.06802
H         12.70611        46.46159        -0.26492
H         15.78648        14.93712        -2.93142
H         14.71414        17.07955        -2.82036
H         13.78128        48.46906        -0.10096
H         14.91398        50.56736        -0.40876
H         17.84791        10.42927        -3.02340
H         16.77357        12.66133        -2.95953
H         16.03256        52.75610        -0.59953
H         17.24731        54.83830        -1.37367
H         20.25645         6.47304        -4.03238
H         18.95910         8.29648        -3.22348
H         18.47533        56.78701        -2.37932
H         19.60971        58.48895        -3.63991
H         23.91742         3.83300        -5.63428
H         21.67727         4.81348        -5.22770
H         22.78235        60.73721        -6.43874
H         20.71383        59.95182        -5.32862
H         25.90882         4.58920        -4.36444
H         26.90587         6.08428        -2.62965
H         26.40589        58.35949        -4.37461
H         25.01185        59.86827        -5.80456
H         27.95987         7.81886        -1.36889
H         29.11362         9.74337        -0.36816
H         29.02330        54.59485        -2.65053
H         27.73730        56.63928        -3.25209
H         30.32723        11.86096         0.17348
H         31.49324        13.93441         0.61254
H         31.56193        50.53849        -1.47418
H         30.30930        52.60934        -1.93604
H         32.66870        15.97973         1.33858
H         34.21171        18.41941         1.06772
H         34.06549        46.33112        -0.65296
H         32.81854        48.42088        -1.02537
H         35.27836        20.45550         0.40274
H         36.48203        22.49232         0.17251
H         36.64599        42.22969        -0.00093
H         35.31534        44.26091        -0.40964
H         37.76190        24.62363         0.02332
H         38.75084        26.86321        -1.16672
H         39.03429        37.93675        -0.28588
H         37.88312        40.13354        -0.02865
H         39.72535        28.96536        -1.92735
H         41.05319        31.02640        -1.08000
H         41.44608        33.33178        -0.72520
H         40.17527        35.68970         0.01002
