         349
 CSIRO Nanostructure Databank - Neutral Graphene Oxide Data Set
C          1.27201         2.25470        -1.17344
C          1.25081         3.66304        -0.95236
C          2.45037         1.56114        -1.22081
C          2.41322         4.38458        -0.74912
C          1.19410         6.55985        -0.43806
C          1.18181         7.91490        -0.14384
C          2.39901         5.82353        -0.46006
C          2.36200         8.59464         0.23278
C          1.21257        10.79633         0.48277
C          1.23251        12.21707         0.45977
C          2.35917        10.02205         0.54835
C          2.41046        12.94657         0.45905
C          1.34050        15.16401         0.01180
C          1.40643        16.56872        -0.17645
C          2.47339        14.38582         0.26545
C          2.58729        17.26851        -0.00412
C          2.69788        18.68768        -0.15738
C          3.70887         2.24448        -1.06757
C          3.68597         3.67856        -0.78143
C          4.90321         1.55852        -1.18536
C          4.86127         4.33931        -0.48662
C          3.59904         6.51005        -0.14636
C          3.57542         7.86036         0.24282
C          4.92934         5.83147        -0.36932
C          4.79261         8.49863         0.90433
C          3.63651        10.69977         0.84839
C          3.66450        12.23045         0.75431
C          4.90921         9.98103         0.63280
C          4.95808        12.86590         0.44496
C          3.76516        15.03423         0.33487
C          3.79840        16.53894         0.52942
C          4.94927        14.31247         0.34640
C          5.07626        17.16357        -0.03317
C          3.89215        19.35653         0.00169
C          5.13041        18.65738         0.21513
C          6.18438         2.25517        -1.13658
C          6.16683         3.68412        -0.66947
C          7.48019         1.55180        -1.13927
C          7.38238         4.25936        -0.02613
C          5.97798         6.23885         0.69659
C          6.05705         7.73215         0.73279
C          7.30904         5.52932         0.45980
C          7.31129         8.41196         0.44617
C          6.08637        10.65961         0.38974
C          6.11977        12.11342         0.34022
C          7.34833         9.88243         0.14392
C          7.42325        12.82810         0.00899
C          6.23473        15.00606         0.46022
C          6.26723        16.41657         0.48088
C          7.41820        14.25711         0.50420
C          7.43026        17.13676         0.98569
C          6.31986        19.30503         0.47461
C          7.54663        18.59719         0.75930
C          8.64534         2.10187        -0.66968
C          8.56319         3.31229         0.30024
C          9.87390         1.48331        -1.13078
C          9.86055         4.09054         0.50522
C          8.51976         6.21726         0.97851
C          8.53665         7.72060         0.95399
C          9.82591         5.50840         0.92115
C          9.84688         8.44219         0.99111
C          8.70857        10.60595         0.02432
C          8.66759        12.06604         0.40919
C          9.90202         9.87480         0.62361
C          9.86842        12.70512         0.62574
C          8.68856        14.95833         0.69165
C          8.67250        16.33730         1.25727
C          9.96851        14.18387         0.72031
C          9.98457        17.05334         1.40631
C          8.78564        19.19939         0.76970
C         10.03101        18.49969         1.04000
C         11.09606         1.59328        -0.48168
C         11.05617         3.45018         0.70626
C         12.41931         1.37296        -0.91414
C         12.35903         4.07597         0.66469
C         11.09736         6.27679         0.93728
C         11.10069         7.63840         0.99261
C         12.40174         5.51354         1.15117
C         12.39084         8.37794         1.04926
C         11.09041        10.56409         0.76358
C         11.11097        11.98943         0.70737
C         12.39065         9.87282         0.97224
C         12.35010        12.69514         0.61276
C         11.20916        14.72504         1.43882
C         11.26107        16.25198         1.47881
C         12.40841        14.09491         0.77634
C         12.51575        16.95812         1.12404
C         11.24042        19.12959         1.02349
C         12.52554        18.43980         1.45546
C         13.53990         2.02991        -0.31052
C         13.50768         3.38457         0.28799
C         14.78267         1.39443        -0.46340
C         14.79199         4.09289         0.36893
C         13.59473         6.27343         0.62156
C         13.60474         7.64412         0.63229
C         14.81518         5.51547         0.44941
C         14.78907         8.40078         0.17557
C         13.60269        10.58304         0.46824
C         13.53932        11.96307         0.28385
C         14.80452         9.87715         0.19367
C         14.64614        12.68341        -0.42845
C         13.57585        14.83568         0.39599
C         13.59085        16.29985         0.58009
C         14.67111        14.16976        -0.13662
C         14.79543        17.03562         0.18126
C         13.73933        19.14310         0.94681
C         14.84525        18.48702         0.42178
C         16.01331         1.98207        -0.07891
C         16.02197         3.38962         0.27107
C         17.21751         1.28669        -0.13726
C         17.24903         4.04164         0.55077
C         16.05084         6.20488         0.54580
C         16.12665         7.64633         0.17685
C         17.16648         5.40202         0.85470
C         17.36624         8.48728         0.09121
C         16.01656        10.58516        -0.10782
C         15.98814        11.98832        -0.30013
C         17.27236         9.85003        -0.15113
C         17.17676        12.76119        -0.56441
C         15.81210        14.91716        -0.76340
C         15.88047        16.37492        -0.34224
C         17.11832        14.15219        -0.68161
C         17.06244        17.12605        -0.81964
C         16.03435        19.21909         0.19107
C         17.17114        18.65419        -0.49488
C         18.49428         1.92255         0.01314
C         18.62581         3.35632         0.50920
C         19.60720         1.22477        -0.35435
C         19.69846         4.08688        -0.37174
C         18.90572         6.53513         0.22739
C         18.62652         7.79934        -0.18993
C         19.75669         5.58965        -0.53821
C         19.59061         8.36577        -1.21094
C         18.57960        10.61017        -0.30130
C         18.46247        12.07020        -0.68280
C         19.60263         9.88705        -1.19089
C         19.60885        12.73476        -1.07503
C         18.37180        14.91626        -0.84243
C         18.36817        16.40999        -0.90352
C         19.54677        14.18038        -1.39385
C         19.54998        17.19450        -1.41753
C         18.50681        19.23506        -0.42350
C         19.64159        18.59934        -0.93107
C         20.96521         1.80965        -0.60756
C         20.97720         3.34538        -0.64345
C         21.97724         1.37650         0.45092
C         22.18882         4.05313        -0.83270
C         20.95818         6.28565        -1.09539
C         20.96798         7.74373        -0.98656
C         22.24185         5.51640        -1.15347
C         22.21138         8.41892        -1.51227
C         20.89539        10.61651        -1.40348
C         20.89264        12.07986        -1.21132
C         22.18766         9.91602        -1.30180
C         22.08319        12.76495        -1.38280
C         20.78356        14.92956        -1.78614
C         20.82031        16.44253        -1.73462
C         22.09426        14.19445        -1.76329
C         22.11630        17.12772        -1.51804
C         20.89679        19.23278        -0.98215
C         22.10421        18.53420        -1.27413
C         23.30647         1.54489         0.18731
C         23.45904         3.44817        -0.96271
C         24.52090         1.37342         0.90173
C         24.73201         4.15078        -0.79344
C         23.50408         6.29415        -0.99268
C         23.46327         7.71725        -0.99178
C         24.70737         5.62677        -0.70897
C         24.59738         8.44284        -0.60537
C         23.30679        10.63074        -0.98149
C         23.34172        12.08858        -1.13220
C         24.46697         9.92666        -0.32358
C         24.52792        12.81018        -0.99613
C         23.38403        14.95396        -1.70885
C         23.34498        16.43479        -1.55936
C         24.61235        14.23899        -1.25713
C         24.56301        17.13596        -1.48329
C         23.34092        19.22804        -1.26234
C         24.54374        18.54780        -1.40783
C         25.72974         2.05390         0.58796
C         25.87351         3.38962        -0.10598
C         26.91988         1.48893         1.06529
C         27.02724         4.23659         0.32097
C         25.86151         6.34790        -0.30689
C         25.80528         7.76963        -0.24973
C         27.04273         5.63967         0.13683
C         26.97482         8.50253         0.19231
C         25.75897        10.66669        -0.41182
C         25.70374        12.17310        -0.27713
C         26.88589         9.98533         0.23624
C         27.05902        12.73780        -0.71639
C         25.79597        14.94211        -1.18991
C         25.89393        16.41260        -1.58005
C         27.07140        14.24921        -0.89831
C         26.99616        17.17459        -0.83825
C         25.84012        19.29547        -1.56886
C         26.95852        18.59883        -0.83748
C         28.17339         2.15756         1.02418
C         28.19609         3.57118         0.75237
C         29.37914         1.49617         1.32532
C         29.41137         4.29636         0.91295
C         28.21216         6.39078         0.50609
C         28.14426         7.83677         0.54426
C         29.40388         5.71052         0.83984
C         29.36252         8.57288         0.99109
C         28.10981        10.79384         0.57944
C         28.20300        12.20329         0.13455
C         29.37294        10.08676         0.95918
C         29.34846        12.91451         0.38012
C         28.24062        15.05463        -0.42793
C         28.12042        16.53026        -0.32336
C         29.24359        14.41866         0.51335
C         29.23627        17.26702         0.18057
C         27.99634        19.33142        -0.28804
C         29.15907        18.69103         0.21612
C         30.59611         2.18518         1.31042
C         30.63511         3.57112         1.11788
C         31.88708         4.29619         1.01863
C         30.65279         6.42440         1.31892
C         30.67516         7.89200         0.96035
C         31.90676         5.64699         1.00103
C         31.81920         8.63785         0.91877
C         30.65714        10.80381         0.79485
C         30.61008        12.26184         0.70484
C         31.81852        10.06840         0.79539
C         31.74860        13.04095         0.82670
C         30.55356        15.16537         0.54965
C         30.46272        16.62066         0.56643
C         31.72067        14.46478         0.73517
C         31.53757        17.41002         0.98828
C         30.26754        19.44893         0.68245
C         31.43518        18.81167         1.05728
O         28.19485        14.60656        -1.82444
O          9.61296        14.89655        -0.49374
O         11.03296         2.06701         0.84030
O         19.07324         4.74200        -1.52272
O         15.34902         7.84833        -1.05957
O         19.85533        14.44326        -2.80209
O         23.61446         2.10434        -1.12277
O          7.28204         8.91769        -0.97776
O         12.56637         9.19766         2.26944
O          3.63340        11.53726         2.04656
O         10.62092        16.76703         2.70654
O         18.29645         6.03643         1.38083
O         19.90590        10.37299        -2.51444
O          6.33253         3.39392        -2.12352
O          9.00226         8.27823         2.21847
O         25.79034         3.47824        -1.56800
O          7.78037        16.61080         2.35725
O         19.97242        17.02139        -2.78989
O          9.05325         5.63705         2.21596
O         18.70450        15.73661         0.36404
O         27.08746        10.57462         1.61564
O         16.83709        18.08283        -1.83870
O         21.48426         5.75758        -2.39483
O         29.21931         9.37017         2.22103
O         22.88067        14.44451        -2.98683
O         19.15992         7.93632        -2.51700
H         19.58370         8.54775        -3.16529
O         19.18134         3.32545         1.84382
H         18.53267         2.89534         2.43862
O         30.56003         6.42438         2.78922
H         30.50723         5.48836         3.07776
O         24.12014        10.00726         1.13278
H         24.89884         9.67568         1.63535
O         28.63879        14.62614         1.83456
H         29.18936        14.15684         2.49640
O         27.30419        12.15431        -2.02355
H         27.95787        12.73510        -2.47689
O          9.00502        10.65494        -1.42809
H          8.59437         9.84512        -1.82169
O         15.53154        14.98329        -2.22345
H         14.77372        15.59281        -2.35768
O          7.47651        12.92590        -1.45766
H          8.07020        12.19819        -1.77748
O         12.56667         5.42734         2.60194
H         12.41370         6.32051         2.97880
O         14.29701        12.57329        -1.86489
H         14.86396        13.22804        -2.34544
O         26.29923        16.44484        -2.98905
H         27.11037        15.88630        -3.05248
O         12.58428        18.57388         2.91448
H         11.82139        18.05583         3.27188
O         21.29556         1.29910        -1.91551
H         22.24702         1.47935        -2.09469
O         22.22369         8.26576        -2.96894
H         21.98538         7.32124        -3.15744
O         19.22293        10.57489         1.01952
H         18.62108        11.00685         1.66185
O          5.46938         5.75214         1.97992
H          6.20463         5.80327         2.62886
O          4.47389         8.40509         2.34936
H          4.50031         7.44341         2.57158
O         25.49892        12.54095         1.11694
H         24.85210        11.89868         1.49231
O          5.43867         6.30584        -1.64801
H          5.62579         5.53287        -2.22452
O         26.17437        19.32282        -2.97068
H         26.23278        18.38325        -3.27277
O          5.01735        16.97724        -1.47714
H          5.85916        17.29295        -1.86642
O         11.15519        14.23440         2.79859
H         10.78673        14.95752         3.35762
O          3.82630        16.76685         1.96598
H          3.03516        16.34138         2.35762
O          8.17951         2.74904         1.58514
H          8.38505         3.42508         2.26927
H          0.31671         1.72888        -1.31023
H          0.27225         4.16111        -0.93174
H          2.45714         0.47749        -1.40613
H          0.24233         6.07030        -0.68383
H          0.22299         8.44948        -0.17499
H          0.23573        10.31441         0.33763
H          0.26996        12.73126         0.32803
H          0.35944        14.67933        -0.08716
H          0.49308        17.10498        -0.47539
H          1.78357        19.26043        -0.37703
H          4.89749         0.46454        -1.30179
H          3.90894        20.45637        -0.03513
H          7.53472         0.62818        -1.73793
H          6.34067        20.40610         0.50141
H          9.83028         0.95280        -2.09463
H          8.85513        20.27790         0.56086
H         12.62231         0.65479        -1.72356
H         11.28437        20.20993         0.81500
H         14.80180         0.37608        -0.88004
H         13.79951        20.22757         1.12259
H         17.20976         0.23037        -0.44804
H         16.13563        20.21509         0.64587
H         19.48601         0.18188        -0.68701
H         18.61357        20.21530         0.06459
H         21.63301         1.12455         1.46215
H         20.96298        20.30020        -0.72464
H         24.59871         0.53374         1.60992
H         23.34126        20.32284        -1.15446
H         26.89024         0.46504         1.46766
H         25.73774        20.35470        -1.22615
H         29.36391         0.41606         1.52907
H         27.95373        20.43089        -0.30068
H         31.53570         1.63715         1.47114
H         32.81806         3.71803         0.91855
H         32.86629         6.17723         0.92334
H         32.80018         8.14540         0.97608
H         32.79217        10.56992         0.70445
H         32.72122        12.56166         1.00337
H         32.67909        14.99679         0.81958
H         32.48027        16.93554         1.29388
H         30.19152        20.54494         0.71925
H         32.29625        19.39754         1.40772
