         490
 CSIRO Nanostructure Databank - Neutral Graphene Oxide Data Set
C         37.68019        50.11080         0.99211
C         36.56797        50.75704         1.52285
C         37.81458        52.82052         1.60398
C         36.63607        52.11589         1.84100
C         40.07343        48.69425         0.07058
C         40.06856        50.09742         0.23321
C         38.88803        50.80065         0.75706
C         40.17723        52.96547         0.77143
C         38.94384        52.18466         1.06225
C         40.09869        54.43511         0.59897
C         42.44660        48.70998        -0.49848
C         41.23262        48.02226        -0.27864
C         42.43684        50.12615        -0.46340
C         41.24932        50.79845        -0.08906
C         42.30156        52.99684        -0.79071
C         41.33026        52.26373         0.12509
C         42.34339        54.50049        -0.49431
C         41.13301        55.12728         0.09910
C         44.92590        45.87705        -0.76207
C         43.73082        46.57384        -0.71849
C         44.93200        48.68890        -0.65813
C         43.70252        47.98344        -0.65247
C         44.93456        50.15515        -0.64628
C         43.67338        50.88929        -0.67061
C         44.90768        53.02606        -0.91719
C         43.65301        52.27419        -0.75171
C         44.92844        54.53314        -0.78320
C         43.64684        55.24653        -0.43944
C         44.95473        57.01669         0.69582
C         43.78218        56.39615         0.49862
C         47.45177        44.43345        -0.92600
C         47.43610        45.82718        -0.79571
C         46.16469        46.55784        -0.76603
C         47.44606        48.71708        -0.89048
C         46.14933        47.96579        -0.71748
C         47.37907        50.08167        -0.24083
C         46.12890        50.83444        -0.49825
C         47.37076        53.03035        -0.00678
C         46.21611        52.28832        -0.69206
C         47.47452        54.52079        -0.30562
C         46.21623        55.27821        -0.59085
C         47.43911        57.35405         0.24339
C         46.12616        56.77958        -0.24227
C         47.45898        58.59246         0.79835
C         49.87798        44.36297        -0.73857
C         48.64877        43.71617        -0.90025
C         49.91297        45.78143        -0.60558
C         48.68384        46.52101        -0.65159
C         49.90706        48.65346        -0.38761
C         48.69731        47.94420        -0.54973
C         49.93136        50.08044        -0.25726
C         48.67711        50.82874        -0.07593
C         49.89355        52.95585        -0.24437
C         48.68444        52.29501        -0.14451
C         49.98061        54.46710        -0.41239
C         48.65702        55.17511        -0.17321
C         49.83836        57.12752         0.89734
C         48.75271        56.68608        -0.15960
C         49.89469        58.63862         1.00028
C         48.69566        59.29427         1.03914
C         52.32461        41.44439        -0.28046
C         51.15711        42.12234        -0.43319
C         52.41925        44.31042        -0.53278
C         51.13417        43.57049        -0.73774
C         52.38561        45.78209        -0.36427
C         51.16407        46.48887        -0.43295
C         52.35837        48.64557        -0.18873
C         51.15726        47.93010        -0.34308
C         52.40848        50.07610        -0.21435
C         51.14652        50.80507        -0.23467
C         52.38689        52.98782        -0.51377
C         51.11828        52.22338        -0.22485
C         52.43802        54.39724         0.03486
C         51.14382        54.98375         0.51914
C         52.36130        57.19073         0.61132
C         51.17555        56.47903         0.65229
C         52.37996        58.63371         0.83240
C         51.17122        59.33082         1.07119
C         52.41455        61.41705         1.29656
C         51.22207        60.72295         1.32774
C         54.90214        39.97166        -0.31266
C         54.81631        41.39589        -0.14106
C         53.61860        42.09309        -0.19043
C         54.86918        44.30282        -0.27113
C         53.59032        43.58165         0.10807
C         54.86018        45.78036        -0.11031
C         53.62219        46.45124        -0.15141
C         54.93494        48.64653        -0.03292
C         53.59503        47.89996         0.06801
C         54.89610        50.10359        -0.25471
C         53.63859        50.76553        -0.23599
C         54.89599        52.96457        -0.63485
C         53.65694        52.26236        -0.05872
C         54.89939        54.42179        -0.21789
C         53.61872        55.09557         0.03289
C         54.81630        57.23850         0.29536
C         53.62922        56.52259         0.34408
C         54.84787        58.65157         0.55787
C         53.61641        59.34577         0.81219
C         54.88134        61.48321         0.92966
C         53.63561        60.75756         1.01656
C         54.92780        62.89903         1.02521
C         57.35852        39.98757        -0.14193
C         56.09717        39.30376        -0.25824
C         57.38484        41.36875         0.01659
C         56.08767        42.11468         0.27857
C         57.40844        44.27285         0.01028
C         56.14467        43.54399        -0.22820
C         57.36668        45.75608         0.31008
C         56.10209        46.47924        -0.09367
C         57.37670        48.57223        -0.65617
C         56.14361        47.86118        -0.27067
C         57.37491        50.08209        -0.53551
C         56.11374        50.80356        -0.27433
C         57.36489        52.91137        -0.21240
C         56.16493        52.23215        -0.27725
C         57.39096        54.39918        -0.47735
C         56.07850        55.09344        -0.15497
C         57.34335        57.24066         0.27292
C         56.07773        56.59733        -0.23319
C         57.33240        58.62982         0.48379
C         56.07798        59.35180         0.56909
C         57.33934        61.49173         0.69105
C         56.10028        60.77436         0.73928
C         57.35071        62.91011         0.74278
C         56.11543        63.59025         0.91446
C         59.90818        37.13484         0.05410
C         58.70864        37.77817         0.00206
C         59.91426        39.99847        -0.15729
C         58.62704        39.22738        -0.27672
C         59.85815        41.45277         0.09527
C         58.62074        42.11426         0.10121
C         59.80866        44.32724         0.48930
C         58.56426        43.57183         0.20148
C         59.82823        45.78508         0.18532
C         58.65635        46.45322        -0.05924
C         60.00631        48.63120        -0.62080
C         58.67394        47.77005        -0.80734
C         59.84491        50.06736        -0.14466
C         58.64232        50.78433        -0.25535
C         59.80083        52.89377         0.26894
C         58.60783        52.19218        -0.05389
C         59.77603        54.35647         0.41347
C         58.59527        55.08833         0.13094
C         59.77543        57.19222         0.64349
C         58.56073        56.49719         0.34553
C         59.79174        58.61589         0.67798
C         58.56695        59.33908         0.60766
C         59.81056        61.46273         0.55584
C         58.58170        60.76927         0.62064
C         59.82122        62.90048         0.48330
C         58.59922        63.62779         0.59381
C         59.83853        65.70692         0.28674
C         58.64785        65.04191         0.51162
C         62.46662        35.73591        -0.35113
C         62.39873        37.16588        -0.18515
C         61.17644        37.82079        -0.01202
C         62.41363        40.03880        -0.07023
C         61.16193        39.28829         0.33495
C         62.33660        41.47054        -0.03407
C         61.11875        42.13177         0.16309
C         62.35255        44.35888         0.25314
C         61.11205        43.58555         0.42292
C         62.32203        45.76404         0.40667
C         61.08625        46.49381         0.24269
C         62.24906        48.62025         0.54232
C         61.09747        47.89673         0.15462
C         62.25907        50.03607         0.50075
C         61.01327        50.76169         0.24526
C         62.22648        52.76432         1.06692
C         60.98097        52.16046         0.46853
C         62.21102        54.30242         1.24153
C         60.95281        55.03194         0.79585
C         62.21374        57.18247         0.98534
C         60.99253        56.46340         0.82155
C         62.26385        58.60468         0.88620
C         61.03234        59.32188         0.74458
C         62.29639        61.41093         0.47822
C         61.05476        60.73623         0.59061
C         62.31563        62.83396         0.00363
C         61.04221        63.59291         0.28517
C         62.31736        65.66769        -0.11870
C         61.05325        64.99038         0.14569
C         62.34042        67.00762        -0.68545
C         64.91257        35.78294        -0.35198
C         63.65768        35.07961        -0.42098
C         64.87898        37.22480        -0.33711
C         63.64568        37.91057        -0.25681
C         64.85815        40.09880        -0.68330
C         63.60355        39.35155        -0.27994
C         64.86478        41.53866        -0.22019
C         63.56534        42.27923        -0.40614
C         64.77901        44.38000         0.33364
C         63.57913        43.68540         0.14032
C         64.77504        45.78279         0.56221
C         63.53673        46.46231         0.56992
C         64.77130        48.61734         1.20871
C         63.46982        47.88309         0.92775
C         64.72559        50.14691         1.22679
C         63.46283        50.74469         0.67435
C         64.68880        52.82983         0.30502
C         63.48630        52.16552         0.47628
C         64.61509        54.28377         0.08801
C         63.37604        54.99245         0.52879
C         64.77507        57.14739         0.92491
C         63.47872        56.42097         0.97297
C         64.81276        58.65154         1.20213
C         63.49583        59.32971         0.87316
C         64.79299        61.46516         0.68004
C         63.51863        60.71711         0.62524
C         64.76883        62.92504         0.61485
C         63.56752        63.59847         0.36928
C         64.80908        65.71890        -0.18080
C         63.51638        65.00669         0.11955
C         64.71149        67.25185        -0.02964
C         63.47617        67.73303        -0.75918
C         67.36413        32.97122        -0.12139
C         66.22286        33.64372        -0.39817
C         67.38215        35.81315        -0.16886
C         66.13210        35.08826        -0.26644
C         67.38181        37.25943        -0.27759
C         66.13191        37.95831        -0.33776
C         67.33515        40.09424        -0.18995
C         66.12690        39.36409        -0.34032
C         67.31463        41.51298        -0.01535
C         66.02908        42.19626         0.04386
C         67.29604        44.36769         0.28174
C         66.03867        43.60517         0.59534
C         67.24969        45.85903         0.08553
C         66.00982        46.53205         0.62592
C         67.27354        48.63595         0.82714
C         66.03548        47.90039         0.88161
C         67.27488        50.12378         1.13197
C         65.99476        50.81088         0.73296
C         67.21038        52.89976         0.16536
C         65.96914        52.14361         0.36997
C         67.16982        54.29846        -0.06653
C         65.89456        55.04435        -0.10474
C         67.23795        57.19203         0.40266
C         65.93605        56.51956         0.21254
C         67.26445        58.56987         0.59940
C         65.96714        59.32760         0.44586
C         67.22761        61.50240         1.32874
C         65.99002        60.80032         0.80216
C         67.25016        62.98288         0.84523
C         66.03571        63.62641         0.62613
C         67.26064        65.78155        -0.00048
C         66.01457        65.14638         0.58047
C         67.23480        67.13649        -0.44980
C         66.01565        67.88295        -0.49334
C         67.25381        69.83832        -1.24530
C         66.05754        69.22548        -0.86602
C         69.82383        31.57552         0.82924
C         69.84067        32.94481         0.52298
C         68.52397        33.69919         0.51015
C         69.84557        35.80913        -0.21684
C         68.57260        35.11566        -0.01356
C         69.86246        37.27902        -0.19951
C         68.59874        37.97440        -0.24990
C         69.79890        40.14132        -0.13648
C         68.58969        39.40789        -0.18980
C         69.77247        41.54630         0.02833
C         68.51642        42.23180         0.11695
C         69.74997        44.41718         0.25931
C         68.49793        43.68870         0.21825
C         69.72796        45.83240         0.47677
C         68.52962        46.54234         0.48786
C         69.75258        48.70359         0.69011
C         68.49452        47.96269         0.70917
C         69.71938        50.14126         0.60226
C         68.51232        50.83108         0.62678
C         69.70114        52.92587         0.06133
C         68.46317        52.22776         0.31863
C         69.64004        54.33595        -0.35553
C         68.37419        55.06173        -0.09906
C         69.75246        57.04681         0.56275
C         68.42012        56.42441         0.22972
C         69.70912        58.53144         0.82405
C         68.52090        59.25310         0.78980
C         69.70999        61.19112         1.53970
C         68.50154        60.67242         1.13646
C         69.70581        63.32333         1.14122
C         68.46488        63.75042         0.67228
C         69.69133        65.67819        -0.33013
C         68.46460        65.06433         0.03287
C         69.70118        67.03875        -0.73289
C         68.46590        67.76795        -0.82260
C         69.71961        69.76546        -1.63453
C         68.47072        69.13093        -1.24224
C         69.75148        71.07961        -2.15303
C         72.23728        31.49822         0.82538
C         71.00842        30.85242         0.97005
C         72.27174        32.86414         0.54788
C         71.08461        33.60201         0.40820
C         72.28906        35.88444         0.40897
C         71.15567        35.04579         0.03256
C         72.26653        37.23854         0.20569
C         71.07692        37.95596        -0.14524
C         72.28878        40.20347         0.06106
C         71.10294        39.43996        -0.46209
C         72.23557        41.54381         0.23956
C         71.00176        42.29383         0.12962
C         72.21577        44.48045         0.21132
C         70.98204        43.70526         0.21037
C         72.23440        45.80576         0.45610
C         70.99965        46.54430         0.89888
C         72.13875        48.73739         0.13436
C         70.96320        48.01978         0.56022
C         72.15844        50.09216         0.05939
C         71.03264        50.88609         0.66308
C         72.14089        53.10984         0.16131
C         70.94288        52.31979         0.19769
C         72.14610        54.44932        -0.11263
C         70.92257        55.13385        -0.53652
C         72.09060        57.41554        -0.31177
C         70.79145        56.67891        -0.53706
C         72.18466        58.54065         0.40673
C         71.05376        59.11939         1.23531
C         72.09409        61.46253         1.04646
C         71.00741        60.63574         1.26360
C         72.06981        62.85379         0.70037
C         70.96387        63.68834         0.59072
C         72.19264        65.71835        -0.29273
C         70.96487        64.85843        -0.38565
C         72.16676        67.02638        -0.64946
C         70.94210        67.70887        -0.98372
C         72.16132        69.70067        -1.85589
C         70.95031        69.05560        -1.48232
C         72.16085        70.98998        -2.35804
C         70.94816        71.68512        -2.50924
O         47.88875        50.23998         1.10588
O         64.37315        56.46093         2.15776
O         52.04715        43.88328        -1.87098
O         70.24076        54.55469        -1.69627
O         54.31109        48.32355         1.26800
O         59.43014        39.61066        -1.47002
O         55.49448        43.81334        -1.50946
O         62.41946        52.14320         2.36793
O         63.99134        48.07680         2.30175
O         41.39067        52.59195         1.54883
O         70.65560        35.25438        -1.32591
O         57.24018        49.40673        -1.86699
O         45.77791        52.62890        -2.03278
O         63.54560        54.69249        -0.86824
O         69.70412        62.42357         2.21906
O         60.46823        43.92766         1.72967
O         42.78060        55.34649        -1.61896
O         65.75252        56.05711        -1.15769
O         50.30811        54.76852        -1.75110
O         45.65532        55.08538        -1.93460
O         47.55536        49.01555        -2.32400
H         47.49634        48.16963        -2.81625
O         71.34967        50.97983         2.10537
H         71.24600        50.07904         2.48253
O         65.06560        65.48298        -1.59406
H         64.71704        64.59649        -1.82811
O         53.43136        43.71853         1.54492
H         54.23089        43.31920         1.96512
O         61.08366        39.36885         1.79880
H         61.89492        38.96007         2.16723
O         67.03584        61.61623         2.77598
H         67.88530        61.94860         3.14526
O         67.36127        50.23774         2.59545
H         66.43687        50.28359         2.94932
O         70.99585        64.22578        -1.71817
H         70.96450        64.94644        -2.38289
O         71.30591        58.70104         2.61348
H         71.24821        57.71434         2.61543
O         67.14544        46.04931        -1.39075
H         67.96359        45.67838        -1.78629
O         68.18635        33.84086         1.94350
H         67.28981        34.23688         1.99314
O         71.21669        39.50172        -1.93435
H         71.25215        40.44995        -2.18247
O         54.92124        52.95694        -2.08686
H         54.00180        53.16875        -2.40197
O         55.98073        42.26835         1.74311
H         56.07225        41.37784         2.14469
O         64.81649        40.14000        -2.16809
H         65.70675        40.41419        -2.47742
O         53.75510        52.46232         1.38393
H         53.09681        51.88179         1.82122
O         70.23258        56.36936         1.77788
H         69.50994        56.40002         2.44122
O         63.43913        42.47715        -1.85916
H         63.69045        41.61831        -2.28567
O         56.09319        56.89385        -1.67942
H         56.73773        56.26034        -2.08502
O         58.65581        47.30353        -2.19010
H         58.13970        47.97056        -2.70428
O         50.87156        54.38097         1.82212
H         51.58894        54.65198         2.43259
O         41.78464        52.84367        -2.13351
H         42.23316        53.51904        -2.69045
O         64.50111        67.65339         1.34458
H         65.11212        67.12780         1.91405
O         70.27898        57.09883        -1.80594
H         69.97545        56.28379        -2.27731
O         65.05689        58.85147         2.60520
H         64.62037        58.10581         3.08141
O         65.60527        59.22989        -0.96215
H         66.37924        59.48611        -1.50566
O         60.60656        48.78222        -1.93446
H         60.24050        48.05279        -2.49507
O         52.33124        53.11012        -1.96698
H         51.56754        53.76088        -2.14571
O         62.39414        62.73712        -1.47707
H         61.58968        62.26361        -1.78027
O         49.11687        57.12486        -1.46793
H         49.60963        56.35980        -1.89108
O         57.31312        45.83778         1.78327
H         58.05786        45.31037         2.14674
O         64.63276        50.54526         2.64516
H         63.84056        51.16508         2.73480
O         66.05575        43.43753         2.06314
H         66.88659        42.96930         2.29369
O         49.31895        56.62293         2.16229
H         49.94283        56.88040         2.87169
O         62.34411        54.59000         2.64601
H         62.38233        53.68864         3.08014
O         47.01950        52.95144         1.41791
H         47.23986        52.03781         1.72292
O         65.93909        65.55112         1.98730
H         66.62944        65.05550         2.47719
O         57.53206        54.52661        -1.94322
H         56.80295        53.98243        -2.33138
O         45.80521        57.52899        -1.43791
H         45.53578        56.86727        -2.12275
O         71.02222        46.50464         2.37303
H         70.96544        45.56231         2.63885
H         37.59768        49.04231         0.75344
H         35.64007        50.19496         1.69689
H         37.85557        53.88692         1.86408
H         35.76641        52.62886         2.27380
H         39.16958        48.10445         0.27037
H         39.19878        54.97171         0.92977
H         41.19915        46.92650        -0.33440
H         41.05588        56.21875        -0.00959
H         44.89007        44.78070        -0.79401
H         42.79515        46.00037        -0.73036
H         45.01886        57.81703         1.44841
H         42.90812        56.66166         1.11260
H         46.51746        43.87430        -1.06121
H         46.52100        59.13862         0.97675
H         48.61386        42.62572        -1.02607
H         48.63846        60.38188         1.18655
H         52.27861        40.35222        -0.15504
H         50.20858        41.56697        -0.40110
H         52.39898        62.49717         1.49173
H         50.29868        61.27448         1.54766
H         53.98599        39.39922        -0.51367
H         54.00195        63.47176         1.16629
H         56.10077        38.21486        -0.40406
H         56.09383        64.68625         0.97474
H         59.90226        36.04036         0.16409
H         57.78129        37.19770         0.10966
H         59.84188        66.80337         0.21829
H         57.72588        65.63094         0.60403
H         61.53635        35.15423        -0.39247
H         61.41009        67.39876        -1.12374
H         63.65631        33.98482        -0.50536
H         63.46267        68.72754        -1.22828
H         67.40891        31.88230        -0.26618
H         65.35587        33.08903        -0.78433
H         67.22760        70.89704        -1.53482
H         65.13669        69.82465        -0.86276
H         68.86331        31.06077         0.97168
H         68.81778        71.64113        -2.28998
H         73.17511        30.93565         0.93057
H         70.97156        29.77907         1.20196
H         73.24211        33.36668         0.43051
H         73.16751        35.42146         0.88123
H         73.18054        37.80566         0.43010
H         73.25959        39.69691         0.15144
H         73.15334        42.07680         0.52616
H         73.15956        43.96874        -0.02498
H         73.20081        46.32932         0.47350
H         73.01844        48.16920        -0.20011
H         73.05540        50.61274        -0.30573
H         73.08209        52.62844         0.46368
H         73.06262        55.03653         0.04323
H         72.97322        57.05597        -0.86524
H         73.16622        59.03242         0.49169
H         73.07587        60.98376         0.90778
H         73.01552        63.22380         0.27312
H         73.15056        65.24456        -0.03438
H         73.10754        67.59459        -0.64113
H         73.11767        69.16882        -1.76402
H         73.10704        71.46843        -2.64598
H         70.94767        72.70654        -2.91377
