         404
 CSIRO Nanostructure Databank - Neutral Graphene Oxide Data Set
C          1.09338         3.96528         2.21366
C         -0.00235         4.69612         1.77551
C          1.12334         6.51395         0.42661
C         -0.00079         5.86184         0.96508
C          1.13682         7.92273         0.03581
C         -0.03858         8.69272         0.04114
C          1.14280        10.59243        -0.89401
C         -0.03378        10.00965        -0.40535
C          1.13399        11.94149        -1.59117
C         -0.09182        12.78344        -1.34325
C          1.18108        14.87876        -0.95955
C         -0.07564        14.10477        -1.12586
C          1.19895        16.34081        -1.18437
C         -0.00392        17.11471        -1.03976
C          1.17628        19.16338        -1.82705
C         -0.02386        18.45589        -1.25400
C          1.20701        20.64750        -1.53243
C          0.03141        21.39579        -1.63173
C          1.20957        23.48296        -1.16176
C          0.02693        22.78057        -1.44476
C          1.21534        24.93997        -0.99459
C         -0.00612        25.63019        -0.71813
C          0.71848        28.00367        -0.59768
C         -0.20292        26.97353        -0.35181
C          0.90923        29.25076         0.08227
C         -0.17865        29.96360         0.59754
C          1.11385        32.04132         0.88886
C         -0.08532        31.31815         0.95051
C          1.12467        33.47649         0.99203
C         -0.03298        34.24721         1.08611
C          1.20627        36.33891         1.40664
C          0.01158        35.65544         1.20493
C          1.25738        37.78209         1.52943
C          3.64516         4.00938         2.10751
C          2.37008         4.09951         1.58860
C          3.61486         6.44273         0.22321
C          2.35829         5.82591         0.29400
C          3.63106         7.81756        -0.25225
C          2.36128         8.52474        -0.38631
C          3.58532        10.47148        -1.42750
C          2.34368         9.85062        -0.88692
C          3.60617        11.96018        -1.46702
C          2.44613        12.66282        -1.35891
C          3.70949        14.87177        -1.43708
C          2.47570        14.12450        -1.11803
C          3.66359        16.26009        -1.50036
C          2.42773        17.00678        -1.39046
C          3.67235        19.15498        -1.39178
C          2.45831        18.43653        -1.49901
C          3.67197        20.58510        -1.24797
C          2.43089        21.31840        -1.28416
C          3.67798        23.40163        -0.87024
C          2.43296        22.73786        -1.10628
C          3.68865        24.82189        -0.69162
C          2.48152        25.56870        -0.88804
C          3.65725        27.69150        -0.35198
C          2.63962        26.99835        -0.93158
C          3.57155        29.17991        -0.19651
C          2.27927        29.79984         0.32614
C          3.69253        31.96079         0.77541
C          2.37367        31.26664         0.78015
C          3.70612        33.43119         0.92919
C          2.41747        34.20450         0.97730
C          3.62492        36.19960         1.88662
C          2.44693        35.60631         1.46761
C          3.65129        37.68947         2.29186
C          2.40234        38.41562         1.85334
C          6.04024         3.99362         1.80363
C          4.80942         4.56044         1.44672
C          6.06772         6.36005         0.29702
C          4.81520         5.74606         0.60298
C          6.08230         7.62273        -0.47519
C          4.83455         8.39453        -0.61516
C          6.19715        10.46164        -1.21616
C          4.90598         9.71740        -1.27429
C          6.21308        11.88715        -1.60366
C          4.89208        12.66192        -1.69956
C          6.17454        14.77305        -1.58065
C          4.93804        14.12973        -1.58166
C          6.20090        16.24439        -1.67867
C          4.90828        17.01232        -1.72021
C          6.13958        19.15065        -1.31197
C          4.92856        18.46543        -1.42488
C          6.14206        20.55051        -1.05358
C          4.90048        21.26048        -1.03650
C          6.12785        23.37599        -0.62730
C          4.89806        22.68156        -0.82854
C          6.11245        24.79008        -0.39023
C          4.88241        25.49671        -0.36215
C          6.13176        27.65643        -0.02562
C          4.83437        26.91746         0.16971
C          6.15347        29.14579         0.03776
C          4.85716        29.90692         0.08305
C          6.15552        31.92009         1.03360
C          4.88136        31.27909         0.67255
C          6.12662        33.30996         1.48987
C          4.91695        34.05513         1.48970
C          5.98595        35.85121         2.64954
C          4.82663        35.38566         1.99668
C          6.14587        38.03436         2.18474
C          4.89390        38.37903         1.72799
C          8.48233         3.88628         1.72681
C          7.27753         4.53736         1.39842
C          8.56179         6.45095         0.47055
C          7.29376         5.78901         0.68750
C          8.62178         7.77116        -0.04904
C          7.40377         8.37694        -0.61282
C          8.64114        10.55999        -0.82843
C          7.37637         9.84389        -0.84218
C          8.65260        11.93302        -1.14229
C          7.45595        12.65877        -1.40602
C          8.65496        14.84482        -1.43300
C          7.42975        14.07251        -1.50358
C          8.67358        16.22493        -1.26973
C          7.37831        16.97583        -1.08172
C          8.65399        19.11504        -0.96112
C          7.45495        18.43338        -1.58111
C          8.60800        20.53541        -0.74197
C          7.38102        21.24508        -0.82491
C          8.58962        23.38225        -0.47019
C          7.36500        22.66801        -0.62665
C          8.58003        24.80781        -0.32827
C          7.34154        25.50155        -0.25077
C          8.58380        27.59935         0.21661
C          7.29639        26.94401        -0.11139
C          8.60779        28.98171         0.75477
C          7.39837        29.83710         0.53088
C          8.63185        31.82855         1.57401
C          7.34921        31.21603         1.08865
C          8.68362        33.31210         1.84559
C          7.33186        33.94789         1.88993
C          8.94826        36.38025         2.02844
C          7.17902        35.14994         2.57371
C          8.66950        37.73256         1.60103
C          7.41481        38.42828         1.66031
C         10.93080         3.81336         1.75143
C          9.72973         4.47780         1.43914
C         11.01670         6.45219         0.68655
C          9.76573         5.80135         0.86356
C         11.05833         7.80352         0.22117
C          9.84670         8.48192        -0.11576
C         11.13020        10.53426        -0.61188
C          9.88219         9.86524        -0.54256
C         11.19416        11.93993        -0.96814
C          9.94037        12.61605        -1.36641
C         11.21276        14.88784        -1.40365
C          9.93551        14.12183        -1.59019
C         11.12248        16.29852        -0.96862
C          9.88691        16.96528        -1.03194
C         11.01064        19.07511        -0.14609
C          9.81689        18.38921        -0.76717
C         11.06527        20.55174        -0.43055
C          9.84157        21.24673        -0.53706
C         11.06565        23.38011        -0.47438
C          9.83301        22.67652        -0.49126
C         11.03031        24.81315        -0.46868
C          9.83556        25.50828        -0.34331
C         11.07017        27.73556        -0.09145
C          9.79508        27.02035        -0.45912
C         11.12768        29.02843         0.36107
C          9.92391        29.68302         0.92055
C         11.25487        31.92838         1.33618
C          9.94562        31.11195         1.35267
C         11.08404        33.42170         1.07401
C          9.93945        34.09888         1.50609
C         11.03501        36.26019         0.84378
C          9.93426        35.55941         1.42480
C         10.96180        37.69091         0.67137
C          9.73636        38.35841         0.90916
C         13.38528         3.75273         1.83107
C         12.18480         4.42232         1.51986
C         13.48341         6.39483         0.79348
C         12.23048         5.76337         0.99570
C         13.52928         7.75906         0.34692
C         12.31773         8.46228         0.08778
C         13.61377        10.48458        -0.40237
C         12.35701         9.83553        -0.31416
C         13.65963        11.89796        -0.80286
C         12.39089        12.62833        -0.97467
C         13.64649        14.78908        -0.55515
C         12.49073        14.09470        -1.18217
C         13.50727        16.20344        -0.20471
C         12.31456        16.98727        -0.56829
C         13.55682        19.09887        -0.21246
C         12.32156        18.36313        -0.34101
C         13.55569        20.53016        -0.35992
C         12.30356        21.24496        -0.43473
C         13.56353        23.36029        -0.63658
C         12.30885        22.67037        -0.51901
C         13.58815        24.81604        -0.64598
C         12.29613        25.54586        -0.67729
C         13.56341        27.70494        -0.15072
C         12.29203        27.03567        -0.52028
C         13.50793        29.17783        -0.12849
C         12.35350        29.82567         0.26933
C         13.46030        32.02753         0.17526
C         12.34150        31.26779         0.48811
C         13.48173        33.46144         0.34903
C         12.27178        34.14067         0.66986
C         13.41585        36.30684         0.22910
C         12.24074        35.56867         0.55867
C         13.35166        37.73920         0.08031
C         12.10982        38.39385         0.24598
C         15.84193         3.70097         1.97160
C         14.63904         4.36355         1.61626
C         15.95827         6.30590         0.83149
C         14.69304         5.69263         1.07234
C         16.00987         7.69813         0.43271
C         14.78726         8.41670         0.22629
C         16.07617        10.51782         0.01323
C         14.82386         9.80843        -0.09429
C         16.11488        11.93583        -0.04075
C         14.93848        12.67713        -0.53350
C         16.01381        14.84222         0.14582
C         14.83181        14.13400        -0.27953
C         16.05756        16.23718         0.15906
C         14.79561        16.98072         0.14891
C         16.03675        19.11738        -0.16225
C         14.79039        18.42663        -0.08731
C         16.04538        20.52246        -0.38564
C         14.78830        21.22579        -0.48513
C         16.03505        23.34550        -1.00205
C         14.76781        22.64364        -0.67815
C         16.04227        24.84453        -1.00422
C         14.77189        25.51347        -0.66018
C         16.12177        27.66802        -0.32664
C         14.83878        26.94066        -0.28391
C         16.05070        29.14321        -0.41719
C         14.73577        29.89162        -0.44718
C         15.97679        32.12745        -0.27544
C         14.67967        31.38540        -0.36261
C         15.96033        33.57052         0.01524
C         14.69831        34.20709         0.14796
C         15.85609        36.37351        -0.16570
C         14.66042        35.63861         0.09435
C         15.78492        37.80458        -0.32475
C         14.53362        38.45589        -0.20843
C         18.31595         3.64933         2.13006
C         17.08540         4.30125         1.74547
C         18.44856         6.13971         0.78521
C         17.13813         5.58403         1.12098
C         18.50927         7.65528         0.40959
C         17.24120         8.38994         0.38006
C         18.52871        10.51363         0.43854
C         17.28060         9.80956         0.29521
C         18.52721        11.94345         0.45169
C         17.29069        12.63104         0.28021
C         18.56528        14.86418         0.51680
C         17.23031        14.08696         0.47803
C         18.53296        16.29490         0.18604
C         17.29687        16.97317         0.13304
C         18.50922        19.10015        -0.12808
C         17.27430        18.39645        -0.04612
C         18.50065        20.53065        -0.22420
C         17.30412        21.21231        -0.40675
C         18.60104        23.42499        -0.60716
C         17.34897        22.63990        -0.80481
C         18.61022        24.83803        -0.70187
C         17.34490        25.58975        -0.87479
C         18.58923        27.73060        -0.44971
C         17.33074        27.02400        -0.47029
C         18.60119        29.17412        -0.09994
C         17.27123        29.89240        -0.01675
C         18.53474        32.15775        -0.04805
C         17.23501        31.38636         0.02681
C         18.43272        33.61024        -0.33980
C         17.16855        34.28231        -0.17141
C         18.28875        36.44130        -0.61618
C         17.10624        35.71085        -0.29700
C         18.20884        37.86683        -0.76239
C         16.96699        38.52220        -0.60639
C         19.53600         4.25179         1.97196
C         20.86248         6.23499         1.26677
C         19.65798         5.53468         1.34596
C         20.91507         7.60174         0.92905
C         19.77110         8.36035         0.65156
C         20.96059        10.54978         0.73165
C         19.75901         9.80268         0.61583
C         20.97152        11.92631         0.64190
C         19.77064        12.67302         0.50492
C         20.97309        14.82396         0.02639
C         19.80195        14.09483         0.34471
C         20.96331        16.19723        -0.14480
C         19.75998        16.97334        -0.07851
C         20.92807        19.13742        -0.62090
C         19.74524        18.38817        -0.23553
C         20.95333        20.48969        -0.60898
C         19.80940        21.25928         0.00437
C         20.98910        23.47443        -0.20608
C         19.79969        22.73909        -0.32759
C         21.00768        24.85896        -0.36065
C         19.81713        25.57596        -0.58655
C         20.99729        27.84044        -0.67165
C         19.79785        27.05110        -0.59773
C         20.99666        29.21920        -0.61035
C         19.81923        29.98623        -0.33047
C         20.90231        32.21221        -0.69246
C         19.77891        31.40006        -0.33813
C         20.81986        33.58035        -0.82255
C         19.59440        34.31835        -0.66498
C         20.66752        36.53517        -1.13979
C         19.53504        35.76805        -0.81653
C         20.58940        37.93159        -1.26481
C         19.38746        38.59533        -1.08291
O          1.95159        14.45695         0.23395
O          8.28615        35.82339         3.11347
O         14.60001        12.23781        -1.89286
O          6.12462        37.10126         3.26580
O          2.41281        30.13997         1.74009
O          5.67038        16.70617        -2.96450
O          8.69202        32.34598         2.95382
O          8.57955        27.83460         1.67192
O          3.17148        34.07917        -0.29509
O         15.30438        31.94718        -1.56983
O         17.88684        29.36284         1.18709
O         13.88111        16.50901         1.18754
O         10.09534        30.03559         2.34440
O          9.98259        13.21122        -2.71721
O         15.41438        29.48210        -1.69324
O         16.74992        22.78904        -2.14840
O          6.85600         7.58662        -1.72534
O          5.57029        12.16328        -2.89711
O          2.30904         4.43287         0.21610
O          7.07683        29.77963        -0.91358
O         18.58506         6.59707        -0.59202
O         17.86772        31.86922         1.24124
O         16.68963        25.41834        -2.19016
O          4.18479         9.77995        -2.56039
O          4.21393        29.93279        -1.26308
O         12.15690        14.64620        -2.50134
O         12.23020        26.45892        -1.86738
O          1.65721        27.74352        -1.60293
O         17.83089        14.51599         1.74066
O         14.17632        27.13792         1.06347
O          1.03158        19.07152        -3.29837
H          1.06118        18.11984        -3.53490
O         11.78628        31.89811         2.69030
H         11.44413        31.07374         3.11196
O          1.08739        11.64828        -3.02428
H          1.86656        11.09476        -3.24976
O          7.68949        18.45103        -3.00629
H          6.95225        17.94595        -3.43065
O          9.60256        27.31029        -1.87656
H         10.41277        26.98888        -2.34314
O         10.76454        18.97740         1.32148
H         11.58750        19.26180         1.77486
O          7.11205        17.01234         0.35041
H          7.86964        17.46074         0.78565
O          3.63211        37.77487         3.73962
H          4.53251        37.52780         4.05833
O          4.66247        26.81312         1.63276
H          5.45415        26.35899         1.99355
O         20.02922        21.21860         1.46032
H         20.07652        20.27408         1.72162
H          0.98220         3.30920         3.08953
H         -0.96744         4.46736         2.25489
H         -0.96124         6.39808         0.93550
H         -0.98594         8.25163         0.37744
H         -0.97323        10.57764        -0.40165
H         -1.06274        12.28733        -1.49064
H         -1.03149        14.64460        -1.04887
H         -0.91826        16.61210        -0.69267
H         -0.95903        19.01399        -1.10551
H         -0.91496        20.89817        -1.88422
H         -0.92498        23.31723        -1.55499
H         -0.88544        24.98664        -0.55950
H         -1.11809        27.21005         0.21313
H         -1.17845        29.50785         0.54388
H         -1.02301        31.84380         1.17480
H         -1.02123        33.76936         1.04278
H         -0.93263        36.21815         1.18698
H          0.34107        38.35289         1.31507
H          3.80033         3.53908         3.09014
H          2.41715        39.51289         1.93389
H          6.04565         3.08423         2.42256
H          4.78723        39.05863         0.87024
H          8.44878         2.90907         2.23040
H          7.38395        39.33242         1.02999
H         10.89210         2.80294         2.18415
H          9.64087        39.41537         0.62228
H         13.34350         2.73753         2.25215
H         12.05294        39.48399         0.11285
H         15.79131         2.70344         2.43210
H         14.48417        39.54844        -0.32824
H         18.25004         2.65787         2.60099
H         16.91810        39.61485        -0.72687
H         20.44912         3.75144         2.32661
H         21.78755         5.74239         1.60061
H         21.88973         8.10169         1.01441
H         21.91632        10.02574         0.86396
H         21.93260        12.45360         0.71123
H         21.92740        14.29102        -0.08843
H         21.91439        16.70182        -0.36119
H         21.80696        18.58500        -0.98338
H         21.85489        21.02704        -0.93710
H         21.92600        22.95243         0.03328
H         21.96159        25.39276        -0.25226
H         21.95668        27.33159        -0.84010
H         21.95484        29.74206        -0.74062
H         21.87503        31.73177        -0.86865
H         21.73705        34.12541        -1.08375
H         21.63935        36.04972        -1.30056
H         21.49624        38.49928        -1.51586
H         19.33162        39.68773        -1.19268
