         300
 CSIRO Nanostructure Databank - Neutral Graphene Oxide Data Set
C         30.41496        31.51782        -0.53800
C         30.36242        32.76099        -0.26357
C         30.29395        35.95948         0.26555
C         30.20543        37.18838         0.41948
C         30.37194        40.39421         0.04378
C         30.34806        41.62768        -0.00990
C         32.66793        28.92579        -0.63845
C         31.57666        29.56135        -0.77782
C         32.81407        31.46311         0.90356
C         30.50379        30.31182        -1.17923
C         32.70248        32.93829         0.74775
C         31.38853        33.60634         0.36440
C         32.60081        35.81387         0.33537
C         31.43859        35.08742         0.16330
C         32.60544        37.27116         0.68119
C         31.30598        38.06630         0.84265
C         32.62840        40.30849         0.91047
C         31.22258        39.58006         0.97932
C         32.66134        41.79932         0.84086
C         31.06373        42.68500         0.75666
C         32.64737        44.46243         0.25385
C         31.47739        43.97760         0.16762
C         35.27770        27.11959        -0.13303
C         35.09782        28.56001         0.18370
C         33.74762        29.21637         0.39674
C         35.12437        31.47969         0.06231
C         33.90296        30.74238         0.49648
C         35.21662        32.90605         0.58560
C         33.92870        33.65542         0.17962
C         35.12171        35.84316        -0.08119
C         33.93631        35.13514         0.57036
C         35.12077        37.34006        -0.03182
C         33.81549        38.05889         0.26386
C         35.16847        40.27432         0.05549
C         33.80904        39.55829         0.32366
C         35.19203        41.76736         0.54938
C         33.86932        42.46547         0.12490
C         35.18879        44.74128         0.74781
C         33.94341        43.98767         0.35483
C         35.44102        46.05067        -0.01420
C         37.70255        27.13144         0.04375
C         36.36646        26.54087        -0.13058
C         37.63970        28.52806        -0.59782
C         36.39986        29.29209        -0.06717
C         37.76442        31.45972        -0.30741
C         36.39225        30.77427        -0.27382
C         37.70433        32.94532         0.01024
C         36.47824        33.62123         0.15371
C         37.73581        35.85936        -0.12418
C         36.43203        35.07078        -0.11497
C         37.70661        37.40771        -0.14610
C         36.40484        37.96519         0.51956
C         37.70381        40.28836         0.43684
C         36.41225        39.51487         0.55440
C         37.74727        41.83633         0.42926
C         36.40015        42.51496        -0.06545
C         37.71025        44.52647         0.52223
C         36.47459        43.95024         0.44247
C         37.80100        46.76015         0.15932
C         36.38978        46.83603        -0.13841
C         40.24838        24.44792        -0.34868
C         39.26491        25.04160         0.09617
C         40.27615        27.25159         0.05536
C         38.99797        26.46925         0.27525
C         40.25298        28.58511        -0.21198
C         38.97099        29.39037        -0.47411
C         40.22045        31.44693         0.40578
C         38.85394        30.66588         0.42620
C         40.21546        32.91579         0.03682
C         38.93281        33.64435         0.09737
C         40.29461        35.85507         0.35865
C         38.94784        35.09285         0.30102
C         40.26194        37.33930         0.09706
C         38.96917        38.06823         0.49780
C         40.24964        40.27429        -0.20221
C         38.96109        39.54557         0.06068
C         40.25815        41.77049        -0.41234
C         38.94582        42.49261        -0.25523
C         40.24912        44.82905        -0.46586
C         38.94387        43.99408        -0.15056
C         40.29104        46.28675         0.11960
C         39.00547        47.09887        -0.37275
C         40.44315        49.02292        -1.03851
C         39.42833        48.30285        -0.99691
C         42.87106        24.47951        -0.27644
C         41.56906        25.12056        -0.63122
C         42.83342        27.19967         0.42117
C         41.52303        26.40498         0.35362
C         42.81727        28.64509         0.05754
C         41.55597        29.36157        -0.41606
C         42.92558        31.52556         0.34252
C         41.55162        30.75422         0.26255
C         42.88087        33.00602         0.03412
C         41.55842        33.69112        -0.07687
C         42.78335        35.85606         0.36933
C         41.52545        35.14373         0.07935
C         42.78323        37.35432         0.54413
C         41.54759        38.10973         0.14450
C         42.79765        40.37868         0.35177
C         41.46020        39.61035         0.47436
C         42.87754        41.70377        -0.43896
C         41.55376        42.53169        -0.43990
C         42.85553        44.73451        -0.09125
C         41.53700        44.01558        -0.10156
C         42.88017        46.21627        -0.39050
C         41.59765        47.01111        -0.32038
C         42.99257        49.03278        -0.42796
C         41.59156        48.58845        -0.13109
C         43.87846        25.04454         0.13547
C         45.26839        27.06827        -0.36551
C         44.23610        26.42755         0.57097
C         45.37689        28.60374        -0.05581
C         44.10342        29.35072        -0.30391
C         45.43090        31.57985        -0.16684
C         44.13138        30.84343        -0.30573
C         45.37530        33.02379        -0.13921
C         44.08408        33.69057        -0.08731
C         45.31129        35.96729        -0.23771
C         44.04497        35.18523        -0.10316
C         45.37395        37.36528         0.35409
C         44.09714        38.11073         0.61716
C         45.38759        40.30067         0.10064
C         44.08643        39.62338         0.49282
C         45.38442        41.78513        -0.09740
C         44.10510        42.51000        -0.04271
C         45.42999        44.69573        -0.46882
C         44.12318        43.95159        -0.34598
C         45.39343        46.20733        -0.32239
C         44.22327        46.89724        -0.31214
C         43.98923        48.31016        -0.30636
C         47.74506        27.22947        -0.14773
C         46.68184        26.61826        -0.19657
C         47.96461        28.67170        -0.33817
C         46.65482        29.39458        -0.04883
C         47.91200        31.62961         0.16496
C         46.63292        30.88647        -0.16563
C         47.84233        33.08824        -0.24585
C         46.61872        33.74793        -0.26553
C         47.74896        35.93033         0.31242
C         46.64283        35.24785        -0.53221
C         47.90680        37.42765        -0.04397
C         46.61959        38.17497         0.09759
C         47.93319        40.28950         0.40242
C         46.62559        39.58768         0.64437
C         47.92168        41.75989         0.54082
C         46.64791        42.52910         0.25041
C         48.00724        44.71701         0.26128
C         46.80013        43.93644        -0.36397
C         47.82438        46.14705        -0.04401
C         46.73140        46.69799        -0.21740
C         50.58195        28.89535        -0.02244
C         49.24119        29.41780        -0.30836
C         50.41470        31.60464        -0.18336
C         49.23744        30.92087        -0.16014
C         50.41725        33.05697        -0.45558
C         49.13016        33.82822        -0.32676
C         50.23947        36.06426         0.87955
C         49.11517        35.27684         0.14852
C         50.44141        37.32846        -0.03867
C         49.19121        38.16573         0.13221
C         50.36905        40.22408         0.90643
C         49.14456        39.55722         0.36270
C         50.45978        41.75257         0.94126
C         49.25445        42.43585         0.23362
C         50.66713        44.44623         0.41560
C         49.26790        43.96648         0.50119
C         51.60319        29.55323         0.17158
C         52.26223        31.76708         1.29189
C         51.88269        31.00285         0.03300
C         52.08683        32.86727         1.80986
C         51.30999        34.05593         2.02044
C         52.52533        35.61135         0.40989
C         51.44858        35.17222         1.22716
C         52.79473        36.60293        -0.28282
C         51.79043        37.61962        -0.72844
C         52.42987        40.07138        -0.89451
C         52.44026        38.80778        -1.38434
C         52.32598        41.30506        -0.59832
C         51.73977        42.25348         0.17875
C         51.57118        43.66045         0.03510
O         50.71355        36.99968        -1.44532
O         46.02089        28.92847         1.20719
O         39.49228        39.66985        -1.28217
O         51.41083        33.59078        -0.94522
O         40.93425        30.95213         1.57997
O         39.56016        35.46314         1.56923
O         48.42256        44.39752         1.59205
O         32.88291        41.13897         2.09831
O         40.96507        37.69806        -1.12022
O         42.18766        44.34857         1.15274
O         35.99094        28.91702         1.28443
O         51.18558        39.53680         1.51317
O         38.25908        31.33737        -1.70009
O         38.22517        27.00661         1.38257
O         44.72596        44.28541        -1.69148
O         40.85084        33.15523        -1.27584
O         44.40848        35.84284        -1.38133
O         42.13692        46.60381        -1.59248
O         42.73541        28.23003         1.45487
O         49.27289        34.97635        -1.23856
O         48.60076        29.04937        -1.57455
O         44.89731        37.55472         1.70568
O         39.10330        30.08932        -1.76777
O         37.86288        45.74565         1.17126
O         46.95796        35.45780        -1.95348
O         40.85362        42.21508        -1.67554
O         33.38353        38.87303        -0.89334
O         37.19901        35.33994        -1.35782
O         45.53857        40.80440        -1.24199
O         37.12437        39.91669         1.74141
O         47.15899        37.93774        -1.21364
O         42.66922        36.48150         1.70976
O         47.07433        42.30338         1.62146
O         38.58660        43.29168        -1.40203
O         43.49288        40.35743         1.62777
O         32.02707        37.54138         2.00250
O         35.51484        31.27796        -1.34554
O         44.03887        30.10786        -1.54898
O         34.99646        36.63757        -1.29475
O         31.81844        33.45463         1.78706
O         50.46559        42.14039         2.30604
H         51.17641        41.64691         2.76643
O         41.25818        48.87239         1.20633
H         41.25066        49.84301         1.34075
O         31.77084        30.86241         1.50931
H         31.18193        31.55752         1.88009
O         34.18458        35.23890         1.99901
H         33.33981        35.05677         2.46983
O         43.07268        41.24742        -1.79238
H         43.18961        42.02155        -2.38210
O         35.10756        45.08065         2.12361
H         35.95093        45.51817         2.37340
O         41.09727        39.66339         1.88548
H         41.94028        39.75668         2.39982
O         44.68987        26.51363         1.88886
H         44.01925        26.13131         2.48993
O         47.25283        35.82225         1.65246
H         47.93971        36.15234         2.27893
O         46.25128        34.44769        -2.71325
H         45.36984        34.87669        -2.86719
O         47.96607        31.64069         1.65256
H         47.33138        30.97143         1.99342
O         43.34121        31.47110         1.73803
H         42.53874        31.56070         2.30245
O         33.79215        33.61296        -1.25163
H         34.34220        32.88926        -1.62965
O         30.67505        39.84166         2.27463
H         30.92576        39.10710         2.87689
O         33.23310        28.67399         1.61677
H         33.99265        28.50358         2.21405
O         36.20777        42.50623        -1.47962
H         36.97749        42.94209        -1.91865
O         40.29167        46.22367         1.53440
H         40.48561        47.12054         1.88911
O         33.59264        42.23799        -1.25893
H         34.43950        42.35554        -1.76106
O         35.35898        41.84912         1.96179
H         34.53949        41.52846         2.41512
O         53.24460        38.46050        -2.41271
H         53.20318        37.49181        -2.55569
O         47.22131        43.70783        -1.72873
H         46.40599        43.65274        -2.28626
O         50.19217        33.91970         2.78590
H         50.15421        33.02726         3.18370
O         38.46261        30.40118         1.74736
H         39.26578        30.20880         2.28185
O         49.46909        42.21188        -1.16995
H         48.76835        42.68883        -1.68188
O         49.70210        36.57721         2.11364
H         50.36403        37.18042         2.51555
O         30.55364        42.78994         2.01919
H         30.32783        41.89070         2.35385
O         52.74023        31.30111        -1.00881
H         52.65274        32.26759        -1.20995
O         41.69305        29.56413        -1.82689
H         40.88153        29.99837        -2.17789
O         40.26242        45.00824        -1.87632
H         40.16428        44.12480        -2.30297
O         38.90116        37.98646         1.92657
H         39.64537        38.52622         2.29436
O         37.97141        42.22449         1.79983
H         37.22859        41.85477         2.33858
O         41.59044        25.57619        -1.94911
H         41.71644        24.82425        -2.56300
O         41.34402        25.86565         1.67192
H         41.33766        26.61479         2.30548
O         35.37052        40.25621        -1.36307
H         34.67831        39.68523        -1.77674
O         44.80971        26.89074        -1.68837
H         45.49473        27.18309        -2.32445
O         37.42569        28.25771        -1.98569
H         37.59622        29.07539        -2.50468
O         36.33479        37.50947         1.88266
H         37.09493        37.91759         2.37044
O         37.69280        37.82032        -1.50771
H         37.20868        37.13773        -2.03067
O         46.51209        39.52029         2.08605
H         46.53553        40.44380         2.42968
O         35.25572        32.78613         2.02385
H         35.17025        33.69390         2.40603
