         244
 CSIRO Nanostructure Databank - Neutral Graphene Oxide Data Set
C          1.56195         1.88799        -0.62765
C          1.46980         3.27578        -0.70452
C          2.67484         1.27687        -0.03993
C          2.51674         4.09139        -0.22874
C          1.25969         6.25158        -0.52718
C          1.22545         7.65084        -0.57657
C          2.45248         5.55794        -0.28683
C          2.39369         8.42077        -0.46092
C          1.19980        10.61874        -0.46294
C          1.20518        12.04493        -0.46645
C          2.38436         9.88453        -0.52522
C          2.35142        12.77317        -0.64606
C          1.17985        15.01902        -0.33100
C          1.22867        16.37101        -0.15086
C          2.33782        14.26146        -0.92874
C          2.40806        17.13464        -0.40030
C          2.45380        18.52416        -0.06632
C          3.73330         2.05584         0.44441
C          3.65568         3.45909         0.32893
C          4.82295         1.41512         1.27941
C          4.81634         4.27861         0.72595
C          3.65073         6.32152        -0.11677
C          3.63413         7.74196        -0.28419
C          4.86327         5.67327         0.25523
C          4.86537         8.47447        -0.24263
C          3.62864        10.59474        -0.58547
C          3.62549        12.04630        -1.00658
C          4.85283         9.92694        -0.43038
C          4.88771        12.80271        -0.66473
C          3.65565        14.94192        -0.61897
C          3.64266        16.41120        -0.69860
C          4.87111        14.23227        -0.57229
C          4.94442        17.17424        -0.58714
C          3.61244        19.23521         0.05813
C          4.95206        18.69693        -0.37511
C          6.23555         2.06426         1.21638
C          6.12011         3.58468         1.08313
C          7.20052         1.52395         0.14803
C          7.34894         4.31834         0.74275
C          6.07743         6.38227         0.25945
C          6.06269         7.77828        -0.05005
C          7.32077         5.66372         0.45053
C          7.33010         8.53664         0.00236
C          6.06921        10.67059        -0.47645
C          6.10133        12.09319        -0.56905
C          7.33488         9.93095        -0.52361
C          7.36909        12.80943        -0.47851
C          6.12695        14.93146        -0.39468
C          6.09401        16.37848         0.02209
C          7.34965        14.25454        -0.40302
C          7.37001        17.12591        -0.16096
C          6.14745        19.16394         0.40783
C          7.37208        18.49384         0.20506
C          8.56733         2.15951         0.35982
C          8.59746         3.56482         0.61181
C          9.76305         1.46354         0.27221
C          9.81991         4.23841         0.70045
C          8.63753         6.30912         0.07659
C          8.61052         7.81236         0.18410
C          9.77903         5.72815         0.93043
C          9.92069         8.48076        -0.07484
C          8.64357        10.67949        -0.58855
C          8.59695        12.13988        -0.41286
C          9.94473         9.95901        -0.33437
C          9.82998        12.83368        -0.16049
C          8.61094        14.97061        -0.36535
C          8.59370        16.45837        -0.70023
C          9.81003        14.28569        -0.22202
C          9.88468        17.19552        -0.38691
C          8.62419        19.16330         0.37830
C          9.86676        18.57376         0.06844
C         11.02554         2.12282         0.42035
C         11.04696         3.54165         0.61626
C         12.25745         1.42967         0.33339
C         12.29436         4.24318         0.72623
C         11.10481         6.42029         0.68957
C         11.12024         7.80923         0.46029
C         12.31407         5.70131         0.78959
C         12.32110         8.55813         0.52427
C         11.12400        10.72144         0.12900
C         11.03314        12.15254         0.11240
C         12.27581        10.00974         0.49905
C         12.19546        12.99118         0.61239
C         11.07894        15.00256        -0.26907
C         11.06880        16.43892        -0.48934
C         12.28353        14.34591        -0.06075
C         12.33465        17.06679        -0.62340
C         11.03332        19.32595         0.45499
C         12.32558        19.07433        -0.02584
C         13.48572         2.10086         0.45587
C         13.49051         3.51696         0.68608
C         14.72795         1.40265         0.21437
C         14.76837         4.22679         0.86529
C         13.54925         6.42384         0.77331
C         13.53193         7.83891         0.71537
C         14.80502         5.69925         0.76129
C         14.79788         8.57722         0.78864
C         13.53625        10.75223         0.73518
C         13.52389        12.23825         0.64117
C         14.81313        10.02860         0.47985
C         14.70796        12.81286        -0.12566
C         13.56499        15.02162        -0.14334
C         13.57592        16.47040        -0.29952
C         14.76336        14.31769        -0.11334
C         14.75644        17.23092        -0.14319
C         13.59256        19.39685         0.48387
C         14.78075        18.64549         0.17794
C         15.95000         2.04222         0.16240
C         16.05686         3.45789         0.57680
C         17.16486         1.38998        -0.24976
C         17.24640         4.22533         0.18128
C         16.02752         6.34159         0.60329
C         16.09112         7.80935         0.69854
C         17.24865         5.63538         0.28510
C         17.29138         8.50803         0.21969
C         15.97932        10.67852         0.24107
C         16.03821        12.18390         0.34221
C         17.21678         9.94366        -0.21515
C         17.22923        12.80456        -0.40051
C         16.04216        14.98825        -0.13748
C         16.03618        16.48009        -0.19819
C         17.23783        14.29687        -0.12928
C         17.32668        17.20384         0.02894
C         16.01854        19.27714         0.45534
C         17.28597        18.63127         0.42217
C         18.33561         2.08941        -0.45907
C         18.37529         3.54122        -0.32723
C         19.58019         1.41081        -0.79019
C         19.54201         4.26285        -0.65194
C         18.44517         6.35610        -0.00445
C         18.45073         7.80731        -0.01704
C         19.60460         5.65977        -0.42926
C         19.69419         8.53379        -0.24513
C         18.52200        10.70163        -0.02452
C         18.52676        12.07283        -0.12140
C         19.73730         9.91961        -0.08436
C         19.79174        12.82058        -0.47189
C         18.51233        14.93080         0.38161
C         18.56749        16.43551         0.28005
C         19.79862        14.26512        -0.03402
C         19.74395        17.10144         0.45499
C         18.45882        19.27253         0.74894
C         19.76890        18.55419         0.89451
C         20.68957         2.08694        -1.15143
C         20.66968         3.57434        -1.38181
C         21.98814         4.25807        -1.12923
C         20.85030         6.38385        -0.64645
C         20.89456         7.77546        -0.54006
C         22.04556         5.58360        -0.87303
C         22.09616         8.54222        -0.84193
C         21.06966        10.59856         0.12772
C         21.05805        12.09140        -0.12023
C         22.16879         9.86989        -0.61211
C         22.22245        12.81593         0.02619
C         21.00987        14.95264         0.08241
C         21.02049        16.41165         0.29742
C         22.23140        14.22631         0.00650
C         22.15361        17.17433         0.12794
C         20.95173        19.29553         0.32708
C         22.09289        18.61665         0.06596
O          8.01144        10.16871        -1.80880
O         12.35713        18.30747        -1.23116
O         15.60404         3.69957         1.95118
O          5.27582         4.15347         2.13393
O         10.20581         8.99557        -1.41180
O          4.50016        16.84055        -1.89850
O         13.71508        11.62240         1.95445
O         16.85111        16.96321        -1.35221
O         15.58886         8.30602         2.00561
O          7.95816         8.39238         1.34853
O         11.85309        13.32800         1.99410
H         12.28946        12.64773         2.56200
O         17.06403         9.86832        -1.68192
H         17.01479        10.80509        -2.00659
O         20.01498        18.49544         2.35285
H         20.92985        18.16255         2.47486
O          2.18924        14.36260        -2.38893
H          2.83272        13.71685        -2.77707
O          5.14787        19.29994        -1.70058
H          4.79464        18.64028        -2.34789
O         18.42115        14.68182         1.84431
H         19.28666        14.92276         2.23943
O          6.68731         1.88514        -1.14080
H          7.30947         1.56547        -1.82554
O         16.25408        12.50919         1.72833
H         15.51835        12.10510         2.24822
O          6.89013         1.77334         2.46515
H          6.17796         1.69445         3.14404
O          8.49199        16.51170        -2.17557
H          9.29809        16.09091        -2.54392
O         14.42215        12.40520        -1.48958
H         15.20597        12.63959        -2.04266
O          9.43047         5.97390         2.31552
H         10.09360         5.53006         2.88343
O         20.39762         3.74667        -2.82130
H         20.36166         4.71154        -2.99450
O         19.74584        12.88309        -1.99040
H         20.50250        13.44622        -2.26697
O         21.38975        10.44998         1.55913
H         21.37356         9.49079         1.76380
O         17.03368        12.64653        -1.85233
H         17.90939        12.87146        -2.26582
O          5.76474        16.37187         1.46235
H          6.51302        15.95548         1.94052
O          3.61426        12.00336        -2.51144
H          2.92158        11.35586        -2.76810
O          4.37453         1.53870         2.64819
H          4.28477         2.50675         2.82223
O          8.90355         6.02495        -1.31579
H          8.95058         5.05168        -1.42600
H          0.74172         1.26685        -1.01374
H          0.57877         3.73110        -1.15816
H          2.71960         0.18181         0.04720
H          0.31798         5.69931        -0.65290
H          0.25584         8.14300        -0.73486
H          0.23399        10.10738        -0.35711
H          0.23984        12.55165        -0.32421
H          0.24106        14.48840        -0.11985
H          0.34098        16.90197         0.22627
H          1.49866        19.01157         0.18479
H          4.89189         0.32169         1.05328
H          3.56553        20.30441         0.31307
H          7.27949         0.40301         0.22538
H          6.15731        20.20604         0.76242
H          9.75266         0.37751         0.09016
H          8.61163        20.19785         0.75240
H         12.25253         0.34506         0.14812
H         10.88858        20.13169         1.18974
H         14.67059         0.33512        -0.04852
H         13.68955        20.23491         1.18929
H         17.14787         0.30051        -0.40681
H         15.99464        20.33453         0.75980
H         19.60126         0.31303        -0.70948
H         18.43151        20.33247         1.04629
H         21.61718         1.54391        -1.38842
H         22.91500         3.68398        -1.27974
H         23.02722         6.07178        -0.78442
H         22.94749         8.02822        -1.31172
H         23.08802        10.41893        -0.86556
H         23.17002        12.29088         0.21729
H         23.19122        14.74829         0.11025
H         23.12058        16.69971        -0.08705
H         20.91527        20.39225         0.25518
H         22.99760        19.15398        -0.25471
