         278
 CSIRO Nanostructure Databank - Neutral Graphene Oxide Data Set
C        -10.91571         0.87011         0.47311
C         -9.61581         1.64805         0.45671
C         -8.49642         0.76200        -0.05422
C         -7.21182         1.41043        -0.41391
C         -6.01204         0.54852        -0.66820
C         -4.67819         1.25520        -0.69635
C         -3.43550         0.55010        -0.20728
C         -2.43617         1.37670         0.56424
C         -1.26950         0.66646         1.24507
C          0.01768         1.46245         1.63437
C          1.29896         0.72919         1.19186
C          2.60453         1.48895         1.27547
C          3.86409         0.74810         0.94254
C          4.98971         1.51084         0.30506
C          6.16603         0.75175        -0.21671
C          7.47836         1.47555        -0.42878
C          8.74828         0.72637        -0.10204
C         10.02361         1.50990        -0.52723
C         11.19676         0.64907        -0.07630
C         -9.62012         2.99250        -0.22592
C         -8.44522         3.54957        -0.65458
C         -7.21524         2.74627        -0.69723
C         -5.96415         3.38140        -1.18267
C         -4.70493         2.74550        -0.71400
C         -3.56993         3.46933        -0.50417
C         -2.48667         2.87254         0.34646
C         -1.25111         3.67682         0.65663
C         -0.02115         2.95486         1.16688
C          1.27355         3.61997         0.75283
C          2.58204         2.99208         1.12501
C          3.86745         3.72298         0.87350
C          5.19998         2.95612         0.77322
C          6.21728         3.66933        -0.11766
C          7.51937         2.96345        -0.36470
C          8.79619         3.64747         0.00439
C          9.95069         2.93844         0.01713
C         -8.38015         4.95568        -1.05296
C         -7.23566         5.59149        -1.41361
C         -5.96567         4.82864        -1.53683
C         -4.64539         5.55818        -1.61100
C         -3.42070         4.84109        -1.08278
C         -2.24281         5.67253        -0.65404
C         -1.15845         5.08550         0.16654
C         -0.02354         5.82185         0.37921
C          1.25836         5.08129         0.40490
C          2.54441         5.86684         0.29552
C          3.84526         5.14346         0.36905
C          5.16396         5.91613         0.55360
C          6.24046         5.15237        -0.19205
C          7.57638         5.83397        -0.48982
C          8.71516         5.14555         0.33904
C         -7.19066         7.07144        -1.76106
C         -5.92611         7.68806        -1.11880
C         -4.64711         7.05883        -1.68796
C         -3.37309         7.84525        -1.50613
C         -2.19852         7.16475        -0.88859
C         -1.37778         7.99889         0.10646
C         -0.04890         7.30906         0.46980
C          1.23674         8.07847         0.61298
C          2.54276         7.33508         0.61972
C          3.83223         8.08129         0.53876
C          4.96110         7.29865        -0.14630
C          6.29709         8.02540        -0.22474
C          7.46781         7.34238        -0.30591
C         -5.89624         9.19327        -1.05012
C         -4.77643         9.92401        -1.12474
C         -3.45739         9.36889        -1.60969
C         -2.23059        10.04891        -1.03135
C         -1.21790         9.43673        -0.38742
C         -0.04250        10.25228         0.13752
C          1.28820         9.51171         0.20646
C          2.46535        10.15412         0.03149
C          3.81133         9.60970         0.49822
C          5.02593        10.16076        -0.21504
C          6.17319         9.47236        -0.39874
C        -10.94784        -0.42012         0.84575
C         -9.69111        -1.19103         1.21177
C         -8.50812        -0.64485         0.41539
C         -7.16799        -1.27297         0.73146
C         -6.05682        -0.89782        -0.24623
C         -4.76945        -1.68952        -0.10882
C         -3.44981        -0.96138        -0.04264
C         -2.14926        -1.65615         0.37151
C         -1.22796        -0.83771         1.29180
C          0.09762        -1.54139         1.56440
C          1.34869        -0.77445         1.22122
C          2.66224        -1.53680         1.28432
C          3.87824        -0.77544         0.86328
C          4.87523        -1.44313        -0.07335
C          6.24589        -0.75126         0.09055
C          7.38022        -1.39812        -0.69947
C          8.70611        -0.67378        -0.70279
C          9.99479        -1.42872        -0.77506
C         11.17674        -0.69241        -0.22013
C         -9.76935        -2.67618         0.88317
C         -8.64330        -3.42312         0.81539
C         -7.31158        -2.78013         1.02723
C         -6.11272        -3.65804         0.97406
C         -4.92398        -3.19656         0.14211
C         -3.59288        -3.88204         0.53618
C         -2.39923        -3.05762         0.95255
C         -1.18922        -3.78112         1.46495
C          0.13732        -3.04065         1.48964
C          1.34961        -3.71174         0.82031
C          2.67266        -3.08564         1.31240
C          3.86784        -3.68971         0.56702
C          4.90981        -2.95572         0.04050
C          6.05503        -3.61983        -0.65219
C          7.35254        -2.87893        -0.87516
C          8.62630        -3.65447        -0.90936
C          9.99781        -2.95434        -0.83191
C         -8.63680        -4.76659         0.08800
C         -7.59917        -5.82729         0.53933
C         -6.28239        -5.16734         1.05780
C         -5.00821        -5.94745         1.22803
C         -3.66413        -5.29150         1.03987
C         -2.42350        -6.06206         1.45055
C         -1.14735        -5.29565         1.48103
C          0.02079        -5.93788         0.73502
C          1.34443        -5.24231         1.01922
C          2.64269        -5.97132         0.81544
C          3.82524        -5.14171         0.40289
C          4.78913        -5.76378        -0.35452
C          6.04369        -5.10008        -0.80119
C          7.36762        -5.84662        -0.58237
C          8.59266        -5.00882        -0.91568
C         -7.26823        -6.78331        -0.61928
C         -6.50535        -7.89135        -0.43248
C         -4.91827        -7.40806         1.06344
C         -3.75547        -8.09478         0.95190
C         -2.42919        -7.48693         0.95559
C         -1.28730        -8.12393         0.54074
C          0.03245        -7.46503         0.81000
C          1.32225        -8.18224         0.54765
C          2.69793        -7.49964         0.58610
C          3.55115        -7.90371        -0.59560
C          4.52440        -7.03258        -0.96949
C          6.41849        -8.03240        -1.50033
C          7.45857        -7.31540        -0.99968
C         -5.96889        -8.73995        -1.50467
C         -4.81113        -9.46008        -1.61088
C         -3.69247        -9.61993        -0.67481
C         -2.38127        -9.77537        -0.99481
C         -1.33129        -9.60617         0.11422
C          0.00919       -10.16915        -0.25469
C          1.19480        -9.32038        -0.50218
C          2.48308       -10.06029        -0.75438
C          3.62217        -9.32726        -0.94815
C          4.89679        -9.99044        -1.26289
C          6.14513        -9.46753        -1.43615
O         -6.71733        -0.62525         1.94735
H         -7.40961        -0.76933         2.63561
O          5.34356        -7.32006        -2.06675
O          4.56086         7.04625        -1.45505
O          4.43671        -1.14598        -1.45415
O         -6.51181        -3.06821         2.22804
O         -2.24509         4.92026        -1.93436
O          0.70364        -8.25031         1.85123
O          8.78470         0.60134         1.34936
H          9.68371         0.29860         1.60763
O         -3.08817         2.25992         1.53504
O          5.12260         1.22975        -1.10948
O          1.22363        -3.49227        -0.60346
H          1.55258        -2.59456        -0.85069
O          5.75861        -4.28697        -1.96288
O          3.20734        -1.89487        -1.68743
H          3.43068        -2.38658        -2.51657
O         -3.60658         0.85534        -1.62034
O         -1.80794        -0.10665         2.37649
O         -8.85224        -0.34811        -0.95727
O          3.72401        -1.20828         2.24089
O         -8.20377        -6.54242         1.61536
H         -7.52423        -7.15105         1.98600
O         -6.01433         3.78560        -2.58954
O          5.70047         4.35963        -1.28663
O          3.55302        -8.07653         1.68893
O          3.37157         7.56940         1.83181
O          7.92200         5.61395        -1.87229
H          7.11614         5.27749        -2.33040
O          5.54773         6.03980         1.90645
H          4.83965         6.53536         2.38571
O         -3.91970        -1.55756        -1.29179
O          2.09570        -5.69758         2.15515
O         -5.83464        -5.57793         2.38412
O          0.29978        -2.34341         2.75525
O          1.23929         4.02261        -0.64038
O         -2.14820        -3.18155         2.37617
O         -5.31512        -3.72607        -1.14549
H         -4.72511        -3.33478        -1.82770
O         -6.32223        -0.53051        -1.61452
O          0.43148         7.76897         1.78728
O          3.28339         3.67125         2.21358
O         -9.38976        -1.01738         2.61714
H        -10.08624        -1.46218         3.14288
O         -3.36232        -4.97625        -0.38760
O         -4.62158         6.26641        -2.90599
O          7.54113         2.24964        -1.65564
O          2.79376        -3.45269         2.69036
H          3.43299        -2.83507         3.11204
O          1.18875        -0.03248        -0.04495
O          9.41884        -0.81040        -1.95790
O          3.55691         1.14666         2.31269
O         -6.10193        -8.15862         0.90658
O          2.86786        -8.15930         2.95008
H          2.59232        -7.22265         3.13042
O          0.90454        -8.53670        -1.72194
H          0.89898        -9.15471        -2.48341
O         10.13150         1.63849        -1.95111
H          9.26212         1.96050        -2.29155
O         -3.44157         9.67267        -3.03248
H         -2.79749         9.05529        -3.44637
O          5.79293         2.88976         2.07847
H          5.06796         2.68480         2.71720
O          7.10687        -1.94590        -2.00281
O         -1.69496        -5.87418         2.69812
O          0.11435         1.49754         3.05599
H         -0.63237         2.03816         3.39746
O         -2.20097         8.06499         1.24167
O         -3.95477        -9.46822         0.70027
O          7.39145        -5.91830         0.88702
H          8.17621        -6.43688         1.16305
O         -0.27825        -5.72386        -0.67178
H          0.05628        -4.83865        -0.95488
O          0.09420        11.46556        -0.59233
H          0.27475        11.25018        -1.53005
O         -2.19750         7.45105        -2.30665
O          6.55573        -0.90979         1.48828
H          7.35120        -0.36013         1.71401
O         -8.35638        -4.43763        -1.27896
H         -8.93365        -3.69709        -1.55775
O         -5.96603         7.23983         0.27404
H         -5.34811         7.78999         0.80281
O         -9.25789         1.91469         1.85245
H         -9.92503         2.52742         2.22606
O         -0.86065         3.69680         2.08508
O          3.26543         5.43958        -0.91732
O         -7.18249         7.24547        -3.17377
H         -6.38940         6.77991        -3.53176
O         10.66414        -3.39741         0.35743
H         10.75395        -4.37148         0.32670
O          3.94589        10.09354         1.86139
H          3.42352         9.48444         2.43236
O         -1.70087       -10.39429         1.26975
H         -1.13040       -10.11154         2.01631
O          9.95182         5.78028         0.04668
H         10.03044         5.81060        -0.93105
O         -1.36858        -1.83363        -0.83322
H         -1.99588        -1.90195        -1.59037
H         12.04592        -1.29312         0.08808
H         12.09998         1.14025         0.31865
H         10.89230         3.46132         0.25034
H          8.51166         5.27157         1.43489
H          8.40935         7.90616        -0.40649
H          7.05769         9.99999        -0.79000
H          5.01368        11.24100        -0.42612
H          2.43331        11.22293        -0.23730
H         -0.29399        10.53445         1.19704
H         -2.12238        11.11699        -1.28380
H         -4.83165        11.01450        -0.98492
H         -6.84463         9.67991        -0.77119
H         -8.10073         7.58244        -1.35788
H         -9.31657         5.53225        -0.98997
H        -10.54022         3.59792        -0.20949
H        -11.85189         1.39510         0.22403
H        -11.91102        -0.95420         0.89163
H        -10.74301        -3.11954         0.61565
H         -9.66042        -5.22933         0.16266
H         -7.59629        -6.50733        -1.63202
H         -6.56817        -8.68780        -2.42983
H         -4.62276        -9.89915        -2.60537
H         -2.04620        -9.85829        -2.03784
H          0.13631       -11.25649        -0.12779
H          2.47044       -11.15203        -0.89168
H          4.82736       -11.09138        -1.25831
H          6.99402       -10.16615        -1.50550
H          8.30550        -7.86409        -0.55544
H          9.55054        -5.55929        -0.92577
H         10.60487        -3.27259        -1.72822
