         430
 CSIRO Nanostructure Databank - Neutral Graphene Oxide Data Set
C         27.95949        27.46490         1.16313
C         27.94020        28.90328         1.04407
C         26.75022        29.64343         1.31187
C         27.92616        31.74368         0.90001
C         26.73832        31.01392         1.21432
C         27.93162        33.16430         0.79159
C         26.69804        33.92794         0.76426
C         27.96485        36.05471         0.99173
C         26.69292        35.27833         0.76303
C         27.91853        37.49031         0.51595
C         26.72930        38.22199         0.62144
C         27.84002        40.26907        -0.10970
C         26.68626        39.57654         0.31397
C         27.79712        41.71774        -0.32117
C         26.64408        42.46292        -0.09630
C         27.84862        44.58634         0.09068
C         26.66113        43.86548         0.08638
C         27.94224        45.94469         0.52547
C         30.36370        27.38088         0.68926
C         29.12588        26.75312         1.03478
C         30.30135        28.80870         0.19850
C         29.11768        29.58700         0.71361
C         30.36485        31.70061         0.44470
C         29.14023        31.01028         0.68373
C         30.37703        33.11638         0.42531
C         29.15785        33.85984         0.58745
C         30.34531        35.96584         0.14165
C         29.17310        35.28709         0.50660
C         30.35006        37.41674        -0.03288
C         29.09503        38.15412         0.09520
C         30.30020        40.21525        -0.64488
C         29.04818        39.53485        -0.23450
C         30.32652        41.71735        -0.79158
C         29.02085        42.44302        -0.68669
C         30.37744        44.58745        -0.17073
C         29.07020        43.94852        -0.41404
C         30.39203        45.92830         0.23921
C         29.14849        46.59132         0.55273
C         32.82571        24.56986         0.66942
C         31.64727        25.25819         0.76982
C         32.82101        27.38663         0.34480
C         31.57953        26.68184         0.60771
C         32.82400        28.81609         0.23147
C         31.60351        29.55389         0.29802
C         32.84335        31.66527         0.16612
C         31.60374        30.95448         0.29303
C         32.85675        33.09608         0.12272
C         31.59999        33.82924         0.22068
C         32.80530        35.88285        -0.39127
C         31.55850        35.21749         0.02574
C         32.79171        37.40450        -0.56395
C         31.53058        38.10519        -0.28752
C         32.77611        40.25457        -0.35932
C         31.58426        39.54425        -0.37879
C         32.80457        41.69990        -0.45385
C         31.59540        42.43270        -0.54374
C         32.84583        44.53115        -0.23505
C         31.59825        43.84551        -0.32630
C         32.86590        45.94615         0.05013
C         31.65402        46.62726         0.33311
C         32.88792        48.70116         0.68253
C         31.70195        48.00848         0.67250
C         35.38482        23.11979         0.63129
C         35.29796        24.53228         0.47258
C         34.07660        25.23140         0.44136
C         35.24398        27.37603        -0.05308
C         34.04170        26.67551         0.24699
C         35.27358        28.77663        -0.08908
C         34.05624        29.51245         0.08817
C         35.30027        31.64683        -0.08111
C         34.06261        30.94297         0.05325
C         35.30721        33.07095        -0.10362
C         34.07704        33.77521        -0.00942
C         35.33069        35.93633        -0.44388
C         34.09599        35.28006         0.10683
C         35.28045        37.38646        -0.92883
C         34.04306        38.10635        -0.48217
C         35.31806        40.26331        -0.36089
C         34.05392        39.52562         0.00967
C         35.32276        41.66582        -0.46528
C         34.05732        42.40851        -0.43504
C         35.30930        44.58996        -0.75824
C         34.05842        43.81115        -0.42528
C         35.34610        45.98855        -0.18024
C         34.10967        46.65901         0.11076
C         35.35550        48.78954         0.34211
C         34.11922        48.05323         0.38791
C         35.39952        50.20638         0.45956
C         37.83887        23.08432         0.36600
C         36.57697        22.43322         0.59637
C         37.83848        24.50714         0.19109
C         36.58550        25.32899         0.45845
C         37.73973        27.34319        -0.57871
C         36.43605        26.54273        -0.48136
C         37.74479        28.80615        -0.36089
C         36.52842        29.49860        -0.22813
C         37.76053        31.63971        -0.25307
C         36.53062        30.92785        -0.18037
C         37.76196        33.07670        -0.27755
C         36.54432        33.78653        -0.23004
C         37.78412        35.91288        -0.57157
C         36.52730        35.23298        -0.41871
C         37.82201        37.39607        -0.88648
C         36.53957        38.12867        -0.59318
C         37.81060        40.23608        -0.45692
C         36.54438        39.51051        -0.43658
C         37.80807        41.66003        -0.54037
C         36.56210        42.37650        -0.54588
C         37.78165        44.51138        -0.54868
C         36.59546        43.82032        -0.54275
C         37.79765        46.01530        -0.67500
C         36.54569        46.67766        -0.14681
C         37.80705        48.79874         0.15799
C         36.57856        48.08876         0.13757
C         37.83256        50.21030         0.25288
C         36.58670        50.89693         0.37253
C         40.27040        20.23073         0.26112
C         39.10500        20.91336         0.22711
C         40.29866        23.07502         0.16249
C         39.05596        22.36428         0.27278
C         40.28662        24.49709        -0.00718
C         39.03025        25.17388        -0.07002
C         40.28164        27.37332        -0.19448
C         39.03741        26.61377        -0.40892
C         40.24494        28.78936        -0.25099
C         38.99036        29.49729        -0.31511
C         40.23492        31.63313        -0.26177
C         38.99147        30.92137        -0.28388
C         40.22891        33.07187        -0.35668
C         39.01575        33.77956        -0.37821
C         40.23794        35.95705        -0.53903
C         38.99012        35.22610        -0.48527
C         40.27648        37.34301        -0.43201
C         38.98214        38.06037        -0.15088
C         40.26580        40.22033        -0.49687
C         39.02996        39.54177        -0.42432
C         40.27478        41.64279        -0.56867
C         39.05010        42.33918        -0.60336
C         40.27182        44.43609        -0.04132
C         39.09852        43.82560        -0.81267
C         40.28907        45.94332        -0.14782
C         39.07798        46.62891        -0.15945
C         40.32838        48.78520        -0.00549
C         39.08119        48.03391         0.36350
C         40.31423        50.19969        -0.03682
C         39.08541        50.92190         0.18832
C         40.31069        53.04089         0.15280
C         39.16583        52.34178         0.38703
C         42.76081        20.24931        -0.16297
C         41.58392        20.91976         0.49635
C         42.75038        23.09190        -0.01900
C         41.53308        22.38891         0.16574
C         42.74785        24.53054        -0.02897
C         41.50565        25.22658        -0.04335
C         42.73219        27.38925        -0.05042
C         41.49545        26.66987        -0.08133
C         42.72191        28.80384        -0.07718
C         41.47207        29.51494        -0.15530
C         42.71861        31.68711         0.13102
C         41.45187        30.93120        -0.17194
C         42.70039        33.09676        -0.38934
C         41.49558        33.75180        -0.53759
C         42.76944        35.94180        -0.79471
C         41.47430        35.19968        -0.81509
C         42.77269        37.33178        -0.21589
C         41.49548        38.08428        -0.45182
C         42.76180        40.20193        -0.56895
C         41.51139        39.48496        -0.48774
C         42.76739        41.62143        -0.61695
C         41.54134        42.35299        -0.57580
C         42.79160        44.45365        -0.39105
C         41.57388        43.75753        -0.41444
C         42.82053        45.88371         0.10577
C         41.52477        46.63450        -0.06145
C         42.77850        48.78067        -0.20197
C         41.54445        48.06522        -0.10712
C         42.76608        50.20150        -0.25480
C         41.53770        50.90105        -0.22329
C         42.79962        53.05290        -0.13991
C         41.50223        52.38451        -0.48789
C         43.88792        20.94516        -0.44025
C         45.19039        23.10478        -0.37939
C         43.96889        22.38330        -0.25427
C         45.21061        24.52444        -0.15876
C         43.98013        25.23727        -0.02190
C         45.19060        27.39234         0.03964
C         43.97820        26.68093         0.00532
C         45.20825        28.80089        -0.07870
C         43.96989        29.51587        -0.11409
C         45.19388        31.61852        -0.37724
C         43.98167        30.92825        -0.18366
C         45.17301        33.04152        -0.55071
C         43.97331        33.76755        -0.55864
C         45.24084        35.91082        -0.63103
C         44.02815        35.19118        -0.66594
C         45.22976        37.36253        -0.62687
C         44.02955        38.07765        -0.54975
C         45.23903        40.20831        -0.71563
C         44.00465        39.49636        -0.60523
C         45.22879        41.61837        -0.78233
C         44.01371        42.32954        -0.69318
C         45.25761        44.47681        -0.66139
C         44.01487        43.76943        -0.61850
C         45.22317        45.95932        -0.91250
C         44.01798        46.66865        -0.36339
C         45.26456        48.79489        -0.49504
C         44.01962        48.05435        -0.35521
C         45.23819        50.22643        -0.38786
C         44.01639        50.92657        -0.28091
C         43.96128        52.36222        -0.09623
C         47.60163        23.17370        -0.75309
C         46.42962        22.46180        -0.67857
C         47.64680        24.57198        -0.46044
C         46.45311        25.22945        -0.14084
C         47.72715        27.41338         0.12177
C         46.45024        26.64934         0.39511
C         47.72054        28.78800        -0.05714
C         46.45470        29.51527        -0.16575
C         47.68570        31.63800        -0.55367
C         46.44177        30.89971        -0.38501
C         47.67059        33.01333        -0.74867
C         46.40549        33.74825        -1.03224
C         47.71412        35.88971        -0.63855
C         46.47932        35.21358        -0.68782
C         47.70777        37.34071        -0.53948
C         46.47733        38.06671        -0.64691
C         47.72128        40.18606        -0.52091
C         46.48154        39.48018        -0.66374
C         47.74673        41.60547        -0.59184
C         46.51829        42.33655        -1.08326
C         47.71417        44.52337        -0.73201
C         46.48657        43.80725        -0.73038
C         47.72878        45.94688        -0.67058
C         46.52596        46.67074        -0.64618
C         47.74642        48.82589        -0.45717
C         46.49880        48.09947        -0.57182
C         47.68478        50.25951        -0.36947
C         46.49636        50.92612        -0.37774
C         50.04536        24.78083        -1.05631
C         48.92112        25.29094        -0.47301
C         50.28895        27.37671         0.11131
C         48.99037        26.58722         0.31408
C         50.24972        28.87629        -0.03750
C         48.94884        29.55388        -0.16871
C         50.17038        31.63674        -0.74411
C         48.94020        30.92048        -0.45054
C         50.04046        32.95693        -1.17500
C         48.88968        33.76088        -0.91769
C         50.27461        35.97573        -0.74444
C         48.95344        35.16482        -0.77373
C         50.07304        37.21331         0.15354
C         48.89970        38.04299        -0.29721
C         50.14267        40.17502         0.01874
C         48.92278        39.45853        -0.26811
C         50.15327        41.60148        -0.08255
C         48.95471        42.29626        -0.44311
C         50.27753        44.49877        -0.40666
C         48.98288        43.75341        -0.72473
C         50.22845        45.95590        -0.22991
C         49.04500        46.69111        -0.82504
C         50.17323        48.78510        -0.00363
C         48.96499        48.13780        -0.40205
C         51.31198        25.46754        -1.04058
C         52.76607        27.44782        -0.66520
C         51.47020        26.68825        -0.46105
C         52.73298        28.89853        -0.22744
C         51.49926        29.62140        -0.33590
C         52.68216        31.78651        -0.18201
C         51.46569        31.00387        -0.53564
C         53.07160        33.20839        -0.65952
C         51.89809        34.09691        -0.90806
C         52.47121        35.80219         0.77443
C         51.53327        35.22643        -0.27597
C         52.47748        37.31591         0.74090
C         51.34418        38.00709         0.39213
C         52.49402        40.18155         0.77816
C         51.31396        39.45974         0.40025
C         52.50488        41.61327         0.71073
C         51.35780        42.32806         0.24169
C         52.51106        44.47491         0.67679
C         51.39127        43.74642         0.18314
C         52.51492        45.90482         0.69048
C         51.33530        46.63536         0.25458
C         51.30217        48.08110         0.31225
C         55.14213        27.39472         0.05450
C         53.98914        26.72433        -0.15633
C         55.18796        28.84790         0.01398
C         53.93829        29.56076        -0.01735
C         55.25900        31.71979         0.23648
C         53.95241        31.01550         0.20063
C         55.24806        33.14528         0.50937
C         54.03717        33.86055         0.30097
C         55.00874        35.90384         1.18890
C         53.87387        35.19188         0.69155
C         54.92735        37.30838         1.45379
C         53.58824        38.00609         1.48677
C         54.82340        40.19248         1.59314
C         53.65218        39.49104         1.23040
C         54.83144        41.63443         1.57361
C         53.66786        42.33138         1.13410
C         54.80964        44.47520         1.57768
C         53.66124        43.75928         1.13477
C         54.79173        45.89301         1.57238
C         53.67286        46.58156         1.14366
C         56.38684        29.55081         0.09349
C         56.42026        30.96485         0.16167
C         56.34727        33.84506         1.06212
C         56.23891        35.19345         1.34174
C         56.05429        38.07212         1.79621
C         55.99698        39.45274         1.92878
C         55.96433        42.37921         2.00475
C         55.95682        43.75546         2.01149
O         30.30668        40.84526        -1.97480
O         53.78943        33.05754        -1.86546
O         51.05430        33.57665        -1.90699
O         32.75871        36.42781        -1.70755
O         53.02214        31.54255         1.21224
O         28.88364        43.40928        -1.77001
O         42.10954        35.68998        -2.07599
O         50.50241        28.20271         1.29891
O         38.49472        26.92633        -1.77219
O         49.92389        44.08664        -1.81089
O         35.25404        44.79439        -2.21483
H         36.01331        45.38727        -2.44292
O         52.93055        27.50157        -2.13032
H         53.74816        28.01115        -2.31672
O         41.32497        52.55514        -1.94750
H         40.50169        52.08170        -2.19335
O         45.04883        46.06136        -2.39050
H         45.85586        45.68221        -2.80163
O         37.78039        46.28756        -2.13498
H         38.51130        45.73609        -2.51474
O         30.05385        28.68386        -1.26259
H         29.20575        28.20137        -1.36734
O         49.29813        46.72404        -2.27856
H         49.56556        45.80407        -2.52819
O         51.98873        35.41122         2.09468
H         52.43186        36.00588         2.74500
O         39.17192        47.88581         1.85428
H         39.15167        48.79336         2.22831
O         53.16433        37.87453         2.92645
H         52.40680        38.48609         3.05410
O         35.23785        37.33427        -2.39800
H         36.17375        37.29403        -2.71385
O         38.03975        37.49820        -2.33106
H         38.84823        36.98425        -2.54876
O         39.39797        44.06043        -2.23766
H         38.83942        43.44862        -2.76360
O         36.76156        25.88658         1.79912
H         36.79867        25.13894         2.43222
O         34.04182        39.44071         1.49655
H         34.89080        39.03266         1.77280
O         50.51001        36.44508        -2.08779
H         50.74182        35.66207        -2.63484
O         41.83160        20.82549         1.95259
H         42.68138        21.28400         2.12704
O         40.05463        44.14722         1.36583
H         40.79023        44.56423         1.86562
O         42.73484        31.82944         1.60867
H         42.80494        30.92622         1.98591
O         49.67699        36.67829         1.45117
H         49.56539        37.42730         2.07178
O         49.01364        26.16386         1.72266
H         49.46013        26.90019         2.20784
O         46.37347        26.49811         1.85912
H         47.27307        26.18377         2.14052
O         42.82449        37.09992         1.24363
H         42.98497        37.96589         1.67495
O         34.09365        35.57995         1.55316
H         34.87768        35.14161         1.94783
O         42.99046        45.73667         1.58283
H         42.95686        46.64010         1.96597
O         38.69873        37.90127         1.27337
H         39.46542        38.25554         1.77051
O         28.12269        36.14479         2.45676
H         28.16495        35.22678         2.80001
O         46.62851        42.32084        -2.55609
H         47.52190        42.65579        -2.78714
O         36.10662        26.04623        -1.79499
H         36.93038        26.10669        -2.33656
O         46.28565        33.72699        -2.51824
H         45.47625        34.23363        -2.74839
H         27.02851        26.94928         1.43893
H         25.83351        29.09941         1.58149
H         25.80280        31.55484         1.41037
H         25.74411        33.38844         0.67823
H         25.73289        35.81041         0.71075
H         25.81149        37.73912         0.98233
H         25.73243        40.10605         0.43188
H         25.68502        41.95385         0.06962
H         25.72475        44.37105         0.36352
H         27.02537        46.47081         0.82858
H         29.10458        25.67425         1.24323
H         29.16561        47.64002         0.87517
H         32.80442        23.47921         0.79732
H         30.72580        24.69159         0.95968
H         32.87325        49.77045         0.93050
H         30.77921        48.55190         0.91105
H         34.46301        22.53468         0.75850
H         34.46962        50.77659         0.58566
H         36.55528        21.34326         0.72996
H         36.56793        51.99372         0.42215
H         40.26867        19.13178         0.20204
H         38.16310        20.35760         0.11173
H         40.33508        54.12906         0.31261
H         38.28202        52.87886         0.76070
H         42.73247        19.15885        -0.30751
H         42.79748        54.14300         0.00980
H         44.76173        20.41134        -0.84057
H         44.89204        52.91014         0.10698
H         48.53268        22.63997        -0.98760
H         46.45484        21.37877        -0.85889
H         48.61541        50.84189        -0.35213
H         46.50765        52.02345        -0.35871
H         50.00192        23.82545        -1.59810
H         50.18402        49.87446         0.13946
H         52.16174        24.99641        -1.55418
H         52.18476        48.63365         0.65668
H         56.06587        26.85495         0.31335
H         53.96240        25.62594        -0.09835
H         55.68024        46.44239         1.91465
H         53.70154        47.67840         1.15596
H         57.33547        28.99493         0.10989
H         57.39939        31.46408         0.19389
H         57.29720        33.32545         1.25305
H         57.12191        35.71407         1.73589
H         57.03205        37.58779         1.92239
H         56.91887        39.98253         2.20008
H         56.86562        41.85743         2.35146
H         56.84145        44.31282         2.35120
