         594
 CSIRO Nanostructure Databank - Neutral Graphene Oxide Data Set
C         22.92560        69.82697         1.46534
C         22.91032        71.21343         1.69155
C         21.72481        71.97534         1.68923
C         22.92980        74.10899         1.64134
C         21.75416        73.38696         1.63811
C         25.33584        65.54908         0.91429
C         25.35057        66.95942         1.04249
C         24.14359        67.70084         1.19843
C         25.40338        69.80914         1.38627
C         24.14352        69.09612         1.36177
C         25.44777        71.20306         1.63989
C         24.19092        71.89254         1.95776
C         25.48614        74.09991         1.65797
C         24.20477        73.46673         1.93517
C         27.67268        61.07168         1.18604
C         27.73181        62.57519         0.99919
C         26.52933        63.37147         0.76218
C         27.75728        65.52852         0.60647
C         26.53804        64.79774         0.76858
C         27.80762        66.94693         0.74960
C         26.59566        67.67069         1.01933
C         27.85039        69.80630         1.25933
C         26.61886        69.09358         1.19195
C         27.89477        71.20783         1.44079
C         26.66845        71.91956         1.62138
C         27.93021        74.05783         1.55162
C         26.68110        73.37557         1.65108
C         30.33094        56.92621         0.11620
C         30.18853        58.30767         0.31820
C         28.90924        58.82211         0.67658
C         30.37443        61.35145        -0.08541
C         28.52119        60.20982         0.53787
C         30.32617        62.67813         0.34531
C         29.05874        63.34007         0.71310
C         30.24823        65.54832         0.02161
C         28.98487        64.78275         0.28180
C         30.24236        67.04552         0.10772
C         29.02533        67.66520         0.64843
C         30.41552        69.79889         1.15752
C         29.09286        69.03510         1.16182
C         30.36701        71.26773         1.18860
C         29.15150        71.93066         1.37992
C         30.38963        74.08268         1.38758
C         29.15448        73.37890         1.44736
C         32.66945        52.71197        -0.80586
C         32.78135        54.11667        -0.47284
C         31.58258        54.85802        -0.39406
C         32.81400        56.94139        -0.12998
C         31.56764        56.24286        -0.12879
C         32.81090        58.37786         0.18405
C         31.48088        59.12205         0.50605
C         32.78236        61.28158        -0.17293
C         31.51606        60.54358        -0.02018
C         32.86444        62.68961         0.31274
C         31.57664        63.43219         0.50982
C         32.79425        65.59285        -0.29452
C         31.57376        64.91072         0.31235
C         32.85172        67.06079         0.02545
C         31.56000        67.78760         0.10396
C         32.80430        69.88035         0.56845
C         31.62520        69.17260         0.60687
C         32.80838        71.27421         0.91155
C         31.60998        71.97689         1.09645
C         32.86206        74.12278         1.18898
C         31.62586        73.42330         1.24029
C         35.15284        48.40649        -0.81886
C         35.19912        49.82728        -0.62642
C         33.95851        50.49125        -0.92040
C         35.47284        52.81595        -0.21028
C         33.63663        51.77338        -0.43855
C         35.32170        54.18068        -0.51657
C         34.03865        54.83382        -0.40923
C         35.25657        57.00037        -0.72367
C         34.02923        56.26420        -0.39853
C         35.23163        58.39009        -0.76984
C         34.08364        59.11431        -0.21035
C         35.33427        61.32561        -0.49665
C         34.05002        60.58070        -0.45861
C         35.33748        62.71548        -0.38820
C         34.13839        63.43496         0.08418
C         35.30145        65.58437        -0.15425
C         34.10394        64.89757        -0.03815
C         35.31628        67.04739        -0.12495
C         34.03748        67.73773         0.01387
C         35.34680        69.86359         0.31896
C         34.02683        69.24698        -0.06055
C         35.38723        71.23747         0.82121
C         34.08724        71.97473         1.11830
C         35.35037        74.10165         1.08676
C         34.10799        73.45351         1.11483
C         37.73517        44.18877        -0.10264
C         37.68558        45.58844        -0.24606
C         36.41329        46.17522        -0.59492
C         37.88915        48.56390        -0.05580
C         36.08741        47.50091        -0.28265
C         37.71986        49.88239        -0.50867
C         36.46824        50.55843        -0.48647
C         37.70628        52.72033        -1.08175
C         36.55083        52.01198        -0.62892
C         37.69386        54.12846        -1.15869
C         36.50737        54.87244        -0.90945
C         37.70219        56.99408        -1.26495
C         36.48833        56.29923        -1.03552
C         37.70139        58.44606        -1.47075
C         36.38098        59.18824        -1.23690
C         37.71566        61.31590        -1.05953
C         36.49400        60.62563        -0.90595
C         37.75386        62.73982        -0.88190
C         36.53698        63.45786        -0.57792
C         37.79244        65.57733        -0.37246
C         36.52108        64.85190        -0.35668
C         37.80878        67.07583        -0.25260
C         36.50231        67.76418        -0.17873
C         37.79162        69.91259        -0.00059
C         36.52869        69.20462         0.01524
C         37.80185        71.32066         0.26349
C         36.61307        72.00709         0.63268
C         37.83085        74.09774         0.87097
C         36.59550        73.41230         0.88381
C         40.15101        40.05368         1.08681
C         40.15082        41.40879         0.70078
C         38.94461        42.11654         0.46428
C         40.18919        44.20436         0.04863
C         38.94075        43.48906         0.14561
C         40.18772        45.60331        -0.19725
C         38.94142        46.32842        -0.21521
C         40.23441        48.43957        -0.67635
C         39.00476        47.74328        -0.35117
C         40.21407        49.80458        -0.86490
C         38.93409        50.50485        -1.07293
C         40.24867        52.67940        -1.41065
C         38.93917        51.97489        -1.41203
C         40.25097        54.12852        -1.67496
C         38.90499        54.86655        -1.58317
C         40.18481        57.01985        -1.42271
C         38.94848        56.32049        -1.38428
C         40.18414        58.46341        -1.35749
C         38.96795        59.18983        -1.37198
C         40.18382        61.32834        -1.34044
C         38.95088        60.60758        -1.30627
C         40.19037        62.78810        -1.31295
C         38.96184        63.44431        -1.06967
C         40.18101        65.71734        -1.28897
C         38.92903        64.91869        -1.07376
C         40.21095        67.15996        -0.93640
C         39.02235        67.83331        -0.62494
C         40.20866        69.98767        -0.48920
C         39.00193        69.26091        -0.39527
C         40.24614        71.34801        -0.08560
C         39.03897        72.02681         0.25348
C         40.29366        74.07580         0.72980
C         39.05004        73.42046         0.61307
C         42.59054        35.98039         2.44605
C         42.58383        37.31374         1.97465
C         41.37336        38.00484         1.74282
C         42.61513        40.03240         1.12398
C         41.36113        39.35485         1.32495
C         42.62861        41.40365         0.71391
C         41.40784        42.09903         0.53803
C         42.64853        44.17401         0.03810
C         41.41161        43.49038         0.20965
C         42.63824        45.53449        -0.36630
C         41.44167        46.27159        -0.42708
C         42.65792        48.34769        -1.08406
C         41.49100        47.69336        -0.73633
C         42.59146        49.79672        -1.58076
C         41.51532        50.56473        -0.81783
C         42.69127        52.74323        -1.26393
C         41.43413        52.01821        -1.23115
C         42.69441        54.17195        -1.24231
C         41.47454        54.89918        -1.41958
C         42.68204        57.05038        -1.22409
C         41.44318        56.31174        -1.38029
C         42.65994        58.45363        -1.22997
C         41.41770        59.18101        -1.29151
C         42.62741        61.37978        -1.10836
C         41.38934        60.59929        -1.31751
C         42.63957        62.78102        -1.62249
C         41.38503        63.55024        -1.48475
C         42.64856        65.71796        -1.55595
C         41.44720        64.97066        -1.44050
C         42.63740        67.14487        -1.39240
C         41.45363        67.84350        -1.08054
C         42.73668        69.98875        -0.68441
C         41.43149        69.36149        -1.12797
C         42.73081        71.33768        -0.18013
C         41.50252        72.02611         0.05341
C         42.74537        74.01637         0.79088
C         41.51267        73.38681         0.51514
C         44.99635        33.34721         3.58001
C         43.79878        33.98581         3.25674
C         45.05219        35.97995         2.54396
C         43.79874        35.30999         2.74421
C         45.08580        37.29705         1.99540
C         43.83905        37.98259         1.73143
C         45.09723        39.97528         0.94056
C         43.83006        39.32249         1.31184
C         45.11765        41.44691         0.80343
C         43.87871        42.10675         0.56532
C         45.13997        44.17603         0.16661
C         43.88745        43.48277         0.24415
C         45.16743        45.51716        -0.29845
C         43.91874        46.13957        -0.77110
C         45.20892        48.33356        -0.99223
C         43.93330        47.60900        -1.18091
C         45.20958        49.79857        -1.24669
C         43.92157        50.55103        -1.52685
C         45.13917        52.72272        -1.19590
C         43.91185        52.02392        -1.30537
C         45.12357        54.13697        -0.97787
C         43.92333        54.87477        -1.04388
C         45.11081        57.02583        -0.70285
C         43.93210        56.33199        -0.99335
C         45.21200        58.47758        -0.89941
C         43.92848        59.20510        -1.20025
C         45.21192        61.41629        -1.04116
C         43.92020        60.67327        -0.94742
C         45.17258        62.80820        -1.25964
C         43.95125        63.49233        -1.75400
C         45.20346        65.75066        -2.07492
C         43.90799        65.00169        -1.92214
C         45.19427        67.28098        -1.93014
C         43.88879        67.95801        -1.57111
C         45.19235        70.00287        -0.76039
C         43.92929        69.33208        -0.96355
C         45.20188        71.35088        -0.22646
C         43.96196        71.99623         0.07532
C         45.19008        73.95524         0.94882
C         43.96692        73.33669         0.60698
C         46.21805        33.99636         3.41425
C         47.49952        36.00843         2.75343
C         46.27017        35.31913         2.89604
C         47.54348        37.30717         2.22122
C         46.33390        37.92831         1.77983
C         47.70052        40.03717         1.03609
C         46.39748        39.23179         1.09486
C         47.46652        41.46880         1.66860
C         46.31667        42.15402         0.92990
C         47.59189        44.24855         0.50676
C         46.34965        43.53555         0.57446
C         47.59842        45.58082         0.03497
C         46.37467        46.23260        -0.33437
C         47.58506        48.40589        -0.28231
C         46.35450        47.65517        -0.63704
C         47.58531        49.90175        -0.38906
C         46.39249        50.60451        -0.91195
C         47.66186        52.71521        -1.17634
C         46.38184        51.97078        -1.08784
C         47.64821        54.18582        -0.92679
C         46.35777        54.83009        -0.54714
C         47.64162        57.10911        -0.38401
C         46.35699        56.34204        -0.32796
C         47.67513        58.49037        -0.42534
C         46.35356        59.25348        -0.24114
C         47.61655        61.45001        -0.44402
C         46.38645        60.71815        -0.67515
C         47.67608        62.91941        -0.75185
C         46.37072        63.63335        -1.07163
C         47.66070        65.38884        -2.15672
C         46.44223        64.94689        -1.77347
C         47.69370        67.58088        -2.06483
C         46.45091        68.04141        -1.62712
C         47.69330        70.08411        -1.01844
C         46.40867        69.35314        -1.06899
C         47.68885        71.49765        -0.41719
C         46.40789        72.03883         0.03466
C         47.65327        73.94025         1.01810
C         46.42122        73.31525         0.69474
C         48.78035        38.03312         2.15413
C         50.05699        40.09066         1.77567
C         48.85908        39.35100         1.72144
C         50.06902        41.47961         1.50366
C         48.80274        42.30982         1.73189
C         50.04082        44.20517         0.70615
C         48.82738        43.58940         0.90877
C         50.11072        45.51349         0.02302
C         48.85845        46.29688        -0.10874
C         50.13877        48.41886        -0.36715
C         48.87040        47.66450        -0.25002
C         50.17087        49.90812        -0.22586
C         48.88474        50.65486        -0.37406
C         50.21917        52.68847        -0.90412
C         48.95746        51.91444        -1.20861
C         50.17773        54.16129        -0.99665
C         48.92368        54.86094        -0.55067
C         50.21808        57.09437        -0.37867
C         48.91349        56.34021        -0.28402
C         50.16589        58.54788        -0.64685
C         48.93401        59.20661        -0.53009
C         50.19423        61.38533        -0.79844
C         48.96513        60.66925        -0.44164
C         50.17016        62.79825        -1.04168
C         48.96298        63.49043        -1.17081
C         50.22799        65.68661        -1.70580
C         48.97526        64.81274        -1.81794
C         50.19640        67.22483        -1.73768
C         48.95401        68.05394        -1.59871
C         50.18995        69.99259        -0.64189
C         48.97354        69.33994        -1.03880
C         50.19036        71.25674         0.19273
C         48.92203        72.05396         0.13108
C         50.14515        73.88671         1.18386
C         48.89593        73.29178         0.79409
C         51.27086        42.13725         1.28173
C         52.52262        44.22510         0.97671
C         51.31875        43.54860         1.00705
C         52.56495        45.72495         0.88397
C         51.43383        46.23145         0.00738
C         52.64213        48.51510         0.23569
C         51.44889        47.69766        -0.25548
C         52.68877        49.81758        -0.54356
C         51.43226        50.58850        -0.58303
C         52.72717        52.70977        -0.66921
C         51.42684        51.98375        -0.77244
C         52.73576        54.19082        -0.78966
C         51.44979        54.91822        -1.00476
C         52.73175        57.06678        -1.03262
C         51.49548        56.35858        -0.62042
C         52.60907        58.51004        -1.26242
C         51.37821        59.24326        -0.90605
C         52.65613        61.38531        -1.06202
C         51.39518        60.66159        -0.99912
C         52.61443        62.81671        -0.91432
C         51.42442        63.53038        -1.08380
C         52.59654        65.68121        -0.87604
C         51.43175        64.98697        -1.13440
C         52.58493        67.14415        -0.74124
C         51.44530        67.93437        -1.27985
C         52.64264        70.01592        -0.53990
C         51.39579        69.32953        -0.78452
C         52.60716        71.45769        -0.34834
C         51.44272        72.11424         0.05826
C         52.55007        74.12695         1.22374
C         51.39300        73.40912         0.75119
C         53.88150        46.37799         0.50136
C         55.17836        48.45696         0.09497
C         53.94165        47.72286         0.21794
C         55.23883        49.82607        -0.18195
C         54.01618        50.52459        -0.64970
C         55.21021        52.69139        -0.66721
C         54.02756        51.99743        -0.74623
C         55.27992        54.15575        -0.97139
C         53.99872        54.91910        -1.12476
C         55.19401        57.13194        -1.20800
C         53.93988        56.40852        -1.10040
C         55.18357        58.51369        -1.33300
C         53.92598        59.28383        -1.41957
C         55.14261        61.39652        -0.81563
C         53.89286        60.71988        -1.09446
C         55.14042        62.81373        -0.59804
C         53.84884        63.50485        -0.51692
C         55.13715        65.74358        -0.55626
C         53.83815        65.01880        -0.42809
C         55.13394        67.13187        -0.59049
C         53.87334        67.87650        -0.45968
C         55.12818        70.04355        -0.41678
C         53.86857        69.35124        -0.56052
C         55.09992        71.48994        -0.28805
C         53.87867        72.11673        -0.45209
C         55.10380        74.22422         1.20511
C         53.83573        74.00325         0.67031
C         56.42930        50.60066        -0.11709
C         57.64642        52.74185        -0.24248
C         56.44922        51.98805        -0.37277
C         57.77433        54.13740        -0.39407
C         56.48204        54.97367        -0.52009
C         57.60914        57.09905        -1.34252
C         56.45996        56.38877        -1.14406
C         57.75098        58.57044        -1.27009
C         56.42898        59.30472        -1.32844
C         57.57793        61.28636        -0.33647
C         56.35060        60.68099        -0.83402
C         57.56855        62.82667        -0.21552
C         56.33194        63.56210        -0.53469
C         57.64367        65.66822        -0.84204
C         56.35287        64.98295        -0.63325
C         57.67139        67.17914        -0.92533
C         56.36539        67.91772        -0.83397
C         57.59312        70.12808        -0.40127
C         56.33478        69.36663        -0.52190
C         57.48763        71.50178         0.14140
C         56.30989        72.21147         0.09466
C         57.49590        74.27427         0.72717
C         56.29889        73.60722         0.64211
C         59.00797        54.71471         0.00450
C         60.10182        57.02751         0.27192
C         59.35666        56.04724        -0.35478
C         60.04939        58.44875        -0.03589
C         58.93268        59.17760        -0.57310
C         60.01005        61.30938         0.13888
C         58.87937        60.57600        -0.32989
C         59.98501        62.75991         0.19348
C         58.86752        63.48804        -0.16068
C         60.14868        65.65865        -0.11371
C         58.94731        64.91818        -0.51885
C         60.20450        67.13138        -0.25998
C         58.97397        67.90455        -0.65516
C         60.05148        69.99066         0.40573
C         58.92060        69.38967        -0.35246
C         60.00595        71.39449         0.67683
C         58.70001        72.15049         0.75794
C         60.01254        74.28664         0.80702
C         58.78276        73.61162         0.27271
C         61.16541        59.20414         0.41770
C         62.54378        61.25730         0.68249
C         61.20940        60.59237         0.41214
C         62.47906        62.76414         0.88211
C         61.18801        63.50817         0.62106
C         62.47701        65.65650         0.65203
C         61.24862        64.96968         0.38737
C         62.47336        67.08775         0.76157
C         61.29726        67.83365         0.45798
C         62.26424        69.85369         1.54817
C         61.18386        69.21630         0.75554
C         62.29549        71.37160         1.61289
C         61.13351        72.10200         1.08787
C         62.36318        74.21701         1.49523
C         61.13897        73.55800         1.15667
C         63.71958        63.54412         0.77984
C         65.02258        65.66540         0.72620
C         63.70602        64.91833         0.77565
C         64.91880        67.10954         1.16684
C         63.65728        67.74869         1.20689
C         64.83886        69.90315         2.00701
C         63.55545        69.11483         1.74062
C         64.76621        71.38864         1.97214
C         63.58786        72.07472         1.76830
C         64.78775        74.24803         1.81928
C         63.57072        73.53087         1.70996
C         66.09289        67.83819         1.34522
C         67.28499        69.96556         1.49973
C         66.11686        69.23972         1.63370
C         67.38201        71.37131         1.89424
C         66.01672        72.13562         2.15926
C         67.25594        74.26857         1.87690
C         66.02365        73.59152         1.96432
C         68.50587        72.20070         1.49307
C         68.45762        73.57496         1.61959
O         57.00436        67.63196        -2.14519
O         33.22271        61.04807        -1.59320
O         66.85377        71.65196         3.22992
O         39.48324        54.47796        -2.87244
O         39.21766        65.48167        -2.39836
O         53.68764        64.21791         0.77935
O         47.73539        71.26657        -1.88732
O         31.64761        64.37188         1.65091
O         43.95833        46.54519        -2.18915
O         44.45681        65.34414        -3.25004
O         38.10479        66.19726         0.92311
O         54.74413        54.43876        -2.29906
O         44.38848        67.93585        -2.95706
O         48.93670        55.35126         0.80915
O         47.72609        66.51885        -2.96971
O         44.76940        50.13114        -2.63675
O         48.30458        61.12858         0.80738
O         36.84306        58.87050        -2.58555
O         52.75115        53.58992         0.54232
O         51.17105        67.75408        -2.70071
O         50.75631        54.69201        -2.27093
O         51.04161        45.45008        -1.13631
O         46.27361        55.38878         0.78815
O         46.98816        41.24970         2.95856
O         34.50177        52.22396         0.59162
O         61.61425        63.15232         1.99345
O         60.00202        67.61177        -1.65303
O         24.21200        72.66795         3.17263
O         34.85309        71.36673         2.21372
O         64.11063        69.25182         3.08760
O         28.58402        63.16218         2.07148
O         49.52848        50.59849         0.91604
O         46.94080        63.68686         0.28697
O         57.36197        61.96183         0.95201
O         52.95782        67.47662         0.64352
O         50.94175        48.05849        -1.55936
O         33.75712        62.87733         1.44334
O         30.75254        67.67637        -1.14946
O         47.63372        53.69032        -2.29597
O         36.89254        48.03790         0.75980
O         33.82721        58.74270         1.19414
O         29.19182        60.79785        -0.55595
O         58.78971        56.42004        -1.58441
O         51.10867        56.72907         0.74112
O         49.90027        64.99568        -2.94918
O         53.85547        73.49079        -0.64930
O         29.93951        69.14114         2.38998
O         43.17533        61.12876         0.23986
O         29.50131        64.98667        -1.09815
O         57.32300        59.22309        -2.51657
O         47.32840        49.25617         0.90737
O         43.31513        62.84247        -2.92176
O         61.85333        70.53957         2.76191
O         53.41232        49.82395        -1.80762
O         58.48038        65.10382        -1.90694
O         45.72245        39.25266        -0.21128
O         38.76710        50.98116        -2.47247
O         58.52346        70.12094        -1.56479
O         44.88650        58.88155        -2.26709
O         53.10899        58.92872        -2.58065
O         41.30613        69.68940        -2.55740
H         42.06641        69.27971        -3.02614
O         58.41371        72.18637         2.19438
H         59.24367        72.41390         2.66608
O         49.07620        51.42246        -2.57459
H         48.93992        52.19133        -3.17296
O         63.43586        60.95960        -0.40630
H         62.95742        61.08073        -1.25180
O         32.57887        65.51607        -1.74408
H         31.85217        66.15064        -1.96261
O         46.08295        59.24837         1.18240
H         46.77185        59.80743         1.60986
O         33.89895        69.56877        -1.49566
H         34.52364        68.99753        -1.99173
O         56.17151        55.25548         0.88628
H         56.97397        55.61981         1.31641
O         52.38817        48.90110         1.60649
H         52.31046        48.06914         2.13956
O         41.96908        50.56349         0.57174
H         41.29299        51.00735         1.12491
O         50.21939        70.74932         1.59027
H         51.06727        70.26817         1.71019
O         48.93467        42.75130         3.10294
H         48.18911        42.27478         3.57855
O         58.86641        73.66041        -1.17541
H         58.13492        73.11703        -1.54016
O         42.19321        49.72594        -2.95827
H         42.99823        49.51828        -3.48472
O         31.47787        59.33156         1.95177
H         32.42013        59.40263         2.23893
O         52.22954        46.23033         2.23894
H         52.82146        45.78363         2.88122
O         65.53419        65.62420        -0.62339
H         64.87449        66.04340        -1.21358
O         48.08312        40.22030        -0.33329
H         47.28801        40.01105        -0.88238
H         22.92321        75.17931         1.38903
H         25.50925        75.18120         1.45450
H         27.92850        75.15819         1.57192
H         30.37377        75.18023         1.46781
H         32.85060        75.22207         1.23921
H         35.37906        75.19852         1.16995
H         37.85575        75.17432         1.09481
H         40.32344        75.12905         1.04571
H         42.75247        75.04612         1.17670
H         45.18139        74.96034         1.39457
H         47.63941        74.93040         1.49582
H         50.11285        74.82316         1.76024
H         52.41104        74.76476         2.11019
H         55.22380        74.84897         2.10325
H         57.51989        75.31022         1.09821
H         60.05620        75.38692         0.80600
H         62.37785        75.31730         1.49078
H         64.76912        75.34441         1.72941
H         67.25461        75.36695         1.83090
H         21.97129        69.28855         1.36310
H         20.76091        71.45770         1.58201
H         20.80409        73.91949         1.48661
H         24.37546        65.01700         0.98418
H         23.18373        67.16282         1.18904
H         27.08069        60.72541         2.04674
H         25.56509        62.85224         0.65278
H         29.41618        56.31273         0.09611
H         28.14012        58.08710         0.96833
H         31.78443        52.39264        -1.37633
H         30.62469        54.32181        -0.46356
H         34.29535        48.00278        -1.37896
H         33.19908        49.92657        -1.48266
H         36.79263        43.62142        -0.12337
H         35.68678        45.54124        -1.12502
H         39.19307        39.52912         1.21797
H         37.98590        41.58374         0.55297
H         41.63317        35.46562         2.61665
H         40.41861        37.48369         1.90669
H         44.97475        32.32319         3.97833
H         42.84019        33.46775         3.40233
H         47.15504        33.48969         3.68560
H         48.43352        35.51928         3.06667
H         49.68724        37.54513         2.54518
H         51.00015        39.58017         2.03208
H         52.21287        41.56538         1.27139
H         53.45376        43.67841         1.19500
H         54.80817        45.78511         0.55922
H         56.11640        47.91745         0.30036
H         57.36810        50.10502         0.17428
H         58.56256        52.18245         0.00622
H         59.71629        54.09411         0.57645
H         60.74047        56.74521         1.12274
H         62.05961        58.65278         0.74395
H         63.00362        60.80204         1.59850
H         64.67402        63.00193         0.71260
H         65.77780        65.13744         1.36094
H         67.05566        67.32901         1.19009
H         68.18302        69.47497         1.09379
H         69.38804        71.71515         1.05138
H         69.35749        74.16301         1.38875
