         661
 CSIRO Nanostructure Databank - Neutral Graphene Oxide Data Set
C          6.48212        31.78241         2.42954
C          6.73066        33.07850         2.74974
C          8.38291        27.45238         0.74501
C          8.38550        28.89324         0.84548
C          7.28130        29.59328         1.33904
C          8.48588        31.77342         1.04730
C          7.14678        31.09168         1.24710
C          8.44113        33.28157         0.88553
C          7.69269        33.91732         2.04803
C          8.84644        36.01979         1.46358
C          7.87132        35.25944         2.25050
C          8.86337        37.49225         1.47856
C         10.81569        23.08056         0.32327
C         10.72858        24.53672         0.53293
C          9.43324        25.25056         0.17390
C         10.75687        27.43515         0.16455
C          9.51270        26.74590         0.39916
C         10.74830        28.86146         0.06365
C          9.57454        29.56531         0.40065
C         10.80117        31.71868        -0.08757
C          9.67035        31.01767         0.53655
C         10.62480        33.19128        -0.38503
C          9.86590        33.84740         0.78093
C         10.91536        36.10888         0.05267
C          9.78867        35.34450         0.72077
C         10.11071        37.24635        -0.55859
C          9.58413        38.15714         0.52626
C         10.74079        40.18226        -0.31617
C          9.71014        39.59785         0.34063
C         10.90517        41.51881        -0.99542
C         13.35168        18.86287         0.26165
C         13.28722        20.26991         0.05066
C         12.09075        20.97674         0.10488
C         13.25537        23.16109         0.02554
C         12.03333        22.41875         0.10634
C         13.29355        24.55526         0.50084
C         12.00581        25.32275         0.59312
C         13.20574        27.46302         0.00346
C         12.00870        26.76127         0.20076
C         13.18278        28.86216        -0.33185
C         11.95778        29.56609        -0.27195
C         13.10849        31.70145        -0.95786
C         11.92425        31.00437        -0.47331
C         13.07692        33.12820        -1.10212
C         11.89921        33.92076        -0.73001
C         13.09177        36.02885        -1.40859
C         11.89578        35.29417        -0.75790
C         13.20242        37.51938        -1.07189
C         12.26098        38.39529        -1.60741
C         13.24626        40.30626        -0.38664
C         12.01434        39.74912        -1.04212
C         13.23528        41.68791        -0.19550
C         11.90674        42.40936        -0.21827
C         13.24581        44.54130        -0.49090
C         12.03979        43.84838        -0.62751
C         13.31125        45.96449        -0.64953
C         15.84524        14.62475         0.51357
C         15.78237        15.99365         0.25712
C         14.58523        16.75226         0.37192
C         15.88715        18.90137         0.34322
C         14.56039        18.15481         0.23803
C         15.84464        20.35317        -0.16484
C         14.51947        20.96953        -0.37353
C         15.77356        23.25604        -0.37954
C         14.48162        22.53015        -0.42034
C         15.78202        24.58599        -0.08496
C         14.58232        25.31875         0.42629
C         15.70478        27.54529        -0.19150
C         14.52730        26.87079         0.47407
C         15.66630        28.86215        -0.61652
C         14.39522        29.58113        -0.66953
C         15.55657        31.62467        -1.49986
C         14.32318        30.93980        -1.06559
C         15.55057        33.16030        -1.45994
C         14.28632        33.86003        -1.20083
C         15.46110        35.87897        -0.47024
C         14.31849        35.26852        -1.01749
C         15.55828        37.29868        -0.20924
C         14.39244        38.08503        -0.42845
C         15.63681        40.24495        -0.01162
C         14.42479        39.52613        -0.23243
C         15.66063        41.64361        -0.06865
C         14.45866        42.39837        -0.11581
C         15.71331        44.53629        -0.14003
C         14.47692        43.82618        -0.22165
C         15.74379        45.95945        -0.24670
C         14.51203        46.68648        -0.52120
C         15.76108        48.84156        -0.63858
C         14.54753        48.09564        -0.67249
C         15.80890        50.21754        -0.77788
C         18.31923        10.32559         0.83765
C         18.29785        11.74113         0.67979
C         17.08764        12.48220         0.72277
C         18.31245        14.54406         0.25231
C         17.07273        13.87160         0.47435
C         18.29730        15.91177        -0.27931
C         16.98006        16.66025        -0.31225
C         18.29931        18.88935        -0.60920
C         17.00598        18.15693        -0.42169
C         18.30159        20.32643        -0.14774
C         17.00215        21.04539        -0.32244
C         18.35878        23.21703        -0.60361
C         17.01698        22.47260        -0.85047
C         18.33949        24.71610        -0.35808
C         17.03486        25.35310        -0.01943
C         18.26401        27.44323        -0.63353
C         16.99395        26.85301        -0.06255
C         18.17313        28.93826        -0.76670
C         16.93017        29.54356        -0.90654
C         18.19108        31.73989        -1.33275
C         16.89008        30.93078        -1.38871
C         18.12949        33.27800        -1.36181
C         16.76002        33.79925        -0.93604
C         18.39354        36.02967         0.05533
C         16.53488        34.94353        -0.21044
C         18.20859        37.38288        -0.04492
C         16.85371        37.98822         0.21247
C         18.17959        40.24922         0.15532
C         16.88885        39.50225         0.24544
C         18.17597        41.63478         0.11876
C         16.94950        42.36095        -0.34882
C         18.16764        44.51567         0.06765
C         16.94302        43.83069        -0.03353
C         18.18756        45.94575         0.08750
C         16.97248        46.63661        -0.14565
C         18.26438        48.83060        -0.08372
C         17.02555        48.08265        -0.43544
C         18.14190        50.32627         0.13255
C         17.12627        50.95474        -0.85191
C         18.25965        53.11177        -0.42452
C         17.07635        52.43886        -0.59317
C         18.31689        54.54732        -0.35250
C         20.83184         6.04855         1.28154
C         20.80417         7.46293         1.19484
C         19.57764         8.19373         1.20749
C         20.76491        10.30319         0.83370
C         19.54659         9.60049         0.95256
C         20.79097        11.68302         0.23300
C         19.52739        12.44968         0.49959
C         20.81214        14.57046         0.33105
C         19.54803        13.84792         0.35777
C         20.74074        16.06984         0.42563
C         19.59827        16.65919        -0.38138
C         20.88773        18.90170        -0.37286
C         19.60710        18.13813        -0.61614
C         20.89597        20.39341        -0.28433
C         19.58531        21.08157        -0.06345
C         20.78889        23.25297         0.08475
C         19.60048        22.55054        -0.19326
C         20.76159        24.72205         0.14211
C         19.54736        25.41106         0.08994
C         20.76270        27.54682        -0.28928
C         19.47699        26.92938         0.17968
C         20.71452        28.89813        -0.95455
C         19.41240        29.66493        -0.82843
C         20.65800        31.82561        -0.59368
C         19.42303        31.03825        -0.94552
C         20.64991        33.23569        -1.14709
C         19.39451        33.96178        -0.84575
C         20.72843        36.05307        -0.60139
C         19.49928        35.29353        -0.48892
C         20.67767        37.46000        -0.37461
C         19.42744        38.14355        -0.18955
C         20.67402        40.22283         0.13588
C         19.43282        39.53171         0.05138
C         20.62961        41.64422         0.52018
C         19.39223        42.39649         0.21917
C         20.72068        44.52933        -0.00456
C         19.41127        43.77748         0.16243
C         20.64132        45.98502         0.38089
C         19.43544        46.65246         0.32197
C         20.68631        48.85640         0.49814
C         19.37121        48.12679         0.67637
C         20.69457        50.27192         0.26852
C         19.49315        51.00798         0.03810
C         20.77067        53.06268        -0.33898
C         19.52581        52.37299        -0.25660
C         20.77603        54.50241        -0.83726
C         19.51346        55.24139        -0.44158
C         20.76325        57.35625        -0.17812
C         19.55393        56.64383        -0.25776
C         20.78020        58.75159         0.02416
C         23.29474         3.22483         1.34967
C         22.08128         3.91089         1.37552
C         23.28911         6.03251         1.11521
C         22.05152         5.32944         1.26261
C         23.28203         7.45789         1.00244
C         22.04608         8.15705         1.08316
C         23.21969        10.30151         0.52661
C         22.05043         9.64976         1.22383
C         23.22811        11.78056         0.59335
C         22.05630        12.46776         0.51728
C         23.26824        14.68123         0.62870
C         22.02881        13.92637         0.50714
C         23.29405        16.07301         0.53100
C         22.05975        16.79665         0.26107
C         23.24016        18.93160         0.67672
C         22.07727        18.15834         0.09449
C         23.27623        20.42020         0.40827
C         22.11935        21.12411         0.16006
C         23.25783        23.27496         0.64957
C         22.03239        22.55975         0.29962
C         23.25356        24.84173         0.52944
C         21.97625        25.47381         0.21472
C         23.23778        27.59046        -0.14413
C         21.94701        26.86151        -0.13295
C         23.23506        29.04768        -0.46664
C         21.95652        29.72696        -0.74080
C         23.21213        31.81649        -0.89941
C         21.95549        31.08742        -0.83661
C         23.23094        33.22315        -0.95878
C         21.95499        33.96196        -1.12147
C         23.16037        36.11750        -0.78636
C         21.94561        35.40703        -0.86247
C         23.13122        37.49492        -0.55913
C         21.90496        38.18295        -0.35884
C         23.17773        40.27437         0.13657
C         21.90280        39.58598        -0.06835
C         23.18941        41.66393         0.58689
C         21.89969        42.37366         0.73966
C         23.07139        44.52065         0.89463
C         21.92503        43.84142         0.59468
C         23.06546        45.96569         0.86102
C         21.88861        46.67804         0.65022
C         23.12727        48.84604         0.53195
C         21.88478        48.14538         0.61044
C         23.15947        50.22084         0.32161
C         21.94495        50.96373         0.18372
C         23.26796        53.04906        -0.31700
C         21.95838        52.36449        -0.12063
C         23.31094        54.54597        -0.53714
C         22.03660        55.26857        -0.49272
C         23.26340        57.35454        -0.02835
C         22.02738        56.62752        -0.24105
C         23.24153        58.74173         0.17276
C         21.98753        59.45945         0.18516
C         23.20053        61.54763         0.56017
C         22.00061        60.86424         0.38016
C         24.50493         3.90518         1.21038
C         25.74936         6.03075         0.93600
C         24.53152         5.32182         1.08518
C         25.76624         7.44009         0.78358
C         24.52282         8.13881         0.82077
C         25.77909        10.33216         0.44718
C         24.51490         9.56584         0.48267
C         25.76447        11.69753         0.43846
C         24.52688        12.45008         0.76003
C         25.82563        14.63235         0.54369
C         24.54292        13.94186         0.81430
C         25.83765        16.10124         0.87251
C         24.54271        16.82414         0.56339
C         25.79673        18.96725         0.51033
C         24.55370        18.20291         0.51631
C         25.78478        20.35005         0.56857
C         24.52396        21.12099         0.90184
C         25.74434        23.27701         0.31568
C         24.57054        22.58670         0.51206
C         25.75197        24.73909         0.10769
C         24.52142        25.49052         0.16106
C         25.68149        27.56542        -0.53985
C         24.51003        26.84977        -0.24014
C         25.69502        28.96459        -0.86748
C         24.49012        29.70726        -0.84147
C         25.65808        31.84748        -1.24227
C         24.45364        31.12589        -1.00504
C         25.68056        33.24618        -1.24734
C         24.44920        33.92289        -1.03642
C         25.74150        36.11975        -0.85775
C         24.44738        35.37835        -0.79088
C         25.67677        37.60790        -0.94991
C         24.37565        38.27910        -0.66168
C         25.69805        40.12459         0.43824
C         24.36962        39.63470        -0.09684
C         25.63740        41.59419         0.86922
C         24.34714        42.33349         0.84004
C         25.61451        44.52739         1.12094
C         24.31374        43.76629         1.35937
C         25.59955        45.93683         1.23639
C         24.29586        46.71793         1.30302
C         25.59243        48.80924         1.03480
C         24.40355        48.03333         0.51771
C         25.63520        50.27877         0.83582
C         24.48886        50.90930         0.06387
C         25.81019        53.07276         0.08571
C         24.45191        52.41717         0.39297
C         25.83688        54.54910        -0.18113
C         24.55605        55.27773        -0.24819
C         25.76026        57.37719         0.21732
C         24.52175        56.64393        -0.02059
C         25.70267        58.76743         0.39438
C         24.47302        59.46820         0.37442
C         24.42218        60.86783         0.56177
C         26.98263         8.16134         0.58614
C         28.23625        10.28580         0.51834
C         27.04098         9.58042         0.46924
C         28.26791        11.79247         0.65919
C         27.01810        12.44507         0.04048
C         28.24994        14.63941         0.16042
C         26.98936        13.94049         0.31010
C         28.24807        16.07569         0.12403
C         27.05054        16.80907         0.34112
C         28.25249        18.90610         0.06876
C         27.04559        18.22231         0.31188
C         28.32955        20.34228         0.36377
C         27.04686        21.11771         0.62654
C         28.20285        23.23705         0.00758
C         27.04060        22.57794         0.32410
C         28.14306        24.62079        -0.59366
C         26.92996        25.40584        -0.19166
C         28.08867        27.42218        -1.22048
C         27.00763        26.91876        -0.24904
C         28.12730        28.93200        -1.33354
C         26.91656        29.63529        -1.23425
C         28.13970        31.77792        -1.81628
C         26.81489        31.05600        -1.75685
C         28.22187        33.27417        -1.96967
C         26.92228        34.01071        -1.62848
C         28.17267        36.17631        -1.30743
C         26.99959        35.45040        -1.27621
C         28.12491        37.63526        -1.01290
C         26.96167        38.31562        -0.77704
C         28.16573        40.46058        -0.12555
C         26.86006        39.82359        -0.56923
C         28.16626        41.74347         0.43335
C         26.89862        42.38413         0.86056
C         28.10802        44.49813         1.33285
C         26.83303        43.85220         0.96018
C         28.09756        45.97048         1.67091
C         26.82693        46.66929         1.34007
C         28.09796        48.80569         1.13734
C         26.84351        48.04046         1.15645
C         28.02640        50.11929         0.46419
C         26.95405        50.93043         0.59657
C         28.37088        53.16632         0.54873
C         27.03210        52.43471         0.74861
C         28.26746        54.57787         0.43340
C         27.07124        55.28370         0.18401
C         26.99335        56.67908         0.29934
C         29.55044        12.41675         0.08491
C         30.66027        14.63194        -0.21666
C         29.47673        13.93465         0.00755
C         30.68995        16.05584        -0.32044
C         29.45994        16.77058        -0.15626
C         30.65588        18.88102        -0.54590
C         29.45746        18.19433        -0.22924
C         30.56710        20.33293        -0.91207
C         29.56941        21.07345        -0.03508
C         30.65591        23.27727        -0.78628
C         29.51268        22.56250        -0.15021
C         30.68461        24.63122        -0.75847
C         29.45367        25.40038        -0.48710
C         30.63706        27.37915        -1.71320
C         29.45299        26.84055        -0.89926
C         30.63972        28.90954        -1.94405
C         29.29175        29.55726        -1.85762
C         31.04218        31.99702        -2.27691
C         29.13683        30.92123        -2.25214
C         30.84794        33.45864        -2.09045
C         29.49643        34.06705        -1.84256
C         30.64586        36.20362        -1.30698
C         29.45853        35.47140        -1.53230
C         30.66040        37.66734        -1.08576
C         29.37307        38.43835        -1.01340
C         30.62234        40.45166        -0.17947
C         29.38865        39.79981        -0.41333
C         30.62897        41.82171         0.28613
C         29.39192        42.47366         0.60143
C         30.60109        44.57370         1.07869
C         29.39148        43.82815         1.02353
C         30.63168        45.98540         1.32566
C         29.44164        46.72524         1.90501
C         30.74976        48.91929         1.34997
C         29.41811        48.22289         1.53620
C         30.84812        50.38698         1.46071
C         29.95657        51.22049         0.82223
C         29.62652        52.61955         0.89622
C         31.88876        16.76904        -0.52960
C         33.09257        18.92896        -0.85394
C         31.89202        18.18506        -0.65471
C         33.08754        20.34666        -0.97218
C         31.88287        21.05182        -0.97174
C         33.15757        23.23103        -1.13541
C         31.84371        22.51057        -1.34387
C         33.18503        24.60057        -1.05590
C         31.97082        25.40021        -0.68019
C         33.13244        27.51013        -1.17184
C         31.95266        26.80499        -1.24497
C         33.19295        28.96348        -1.33509
C         31.99945        29.69870        -1.88147
C         33.35546        31.89907        -1.57723
C         32.04929        31.21212        -1.79686
C         33.45800        33.45260        -1.56084
C         32.11803        34.18970        -1.79376
C         32.88455        36.07986        -0.26153
C         32.04800        35.66381        -1.45244
C         32.94455        37.55217        -0.11887
C         31.86025        38.31166        -0.49601
C         33.08096        40.36566         0.14887
C         31.86477        39.73411        -0.26233
C         33.14716        41.87086         0.10975
C         31.83675        42.52768         0.45896
C         33.08952        44.59087         0.98703
C         31.83629        43.88684         0.82454
C         33.07181        45.97617         1.13857
C         31.84763        46.68874         1.26255
C         31.87577        48.13914         1.35352
C         34.33952        21.08775        -1.05890
C         35.72380        23.16397        -1.06905
C         34.38221        22.45605        -1.10935
C         35.64784        24.66467        -0.87632
C         34.41937        25.34971        -0.95413
C         35.55595        27.47085        -0.58473
C         34.36834        26.77098        -0.87643
C         35.50020        28.91249        -0.42260
C         34.32259        29.62652        -0.87251
C         35.54210        31.80332        -0.27262
C         34.49372        31.09661        -1.03628
C         35.39381        33.18938         0.05033
C         34.27151        33.92682        -0.37248
C         35.19948        35.96535         0.81942
C         34.06457        35.26702         0.17018
C         35.25167        37.34406         0.88902
C         34.28641        38.17590         0.08070
C         35.38569        40.24147         1.04079
C         34.22076        39.62830         0.45048
C         35.41583        41.63699         1.21933
C         34.31786        42.45993         0.86764
C         34.30137        43.82734         1.10693
C         36.82056        25.38908        -0.61663
C         38.05292        27.52713        -0.12591
C         36.77760        26.77287        -0.42312
C         37.79240        28.86609         0.52841
C         36.57528        29.57873         0.15607
C         37.52380        31.61183         1.16822
C         36.54996        31.01831         0.37528
C         37.70829        33.09866         1.07303
C         36.40210        33.82585         0.88477
C         37.40809        35.82150         1.95098
C         36.32301        35.16776         1.24054
C         37.40142        37.19770         2.09552
C         36.37171        38.00870         1.51214
C         36.43401        39.40727         1.53847
C         38.70417        29.43849         1.35600
C         39.63876        31.48968         2.51513
C         38.41553        30.75777         2.02927
C         39.66881        32.83372         2.63395
C         38.59660        33.68229         2.14037
C         38.47619        34.99776         2.48220
O         14.33331        21.67744        -1.61347
O         16.23180        18.91035         1.68862
O         11.26726        25.01721         1.82563
O         21.11602        41.90014         1.90623
O         16.78122        38.69820         1.48903
O         27.30580        33.75860        -3.03543
O         32.74563        35.33453         0.97496
O         18.52498        24.17827        -1.71099
O         23.64735         9.76978        -0.74834
O         21.12984        19.75799        -1.57390
O         31.44914        29.18336        -3.13480
O         21.30130        33.53695        -2.40926
O         26.02394        53.52381        -1.25715
O         20.51827        31.98407         0.81022
O         18.09978        48.37212        -1.45156
O         23.45055        53.54099        -1.66792
O         29.63447        26.48276         0.49555
O         19.85043        17.17968        -1.70172
O         15.50980        32.42119        -2.71993
O         14.15097        24.73414         1.70103
O         23.28903        28.56853         0.96235
O         31.67459        34.08669        -3.19422
O         27.90804        20.67644         1.72415
O         23.21905        24.14690         1.81614
O          9.64242        37.26686        -1.68159
O         30.13058        38.39282        -2.26756
O         25.32180        49.75256         2.15266
O         17.14075        26.14080         1.20301
O          9.46036        31.36373         2.02676
O         25.24159        35.65592         0.44665
O         29.17963        50.55637        -0.15764
O         26.34169        41.78272         2.15609
O         28.63337        48.97322         2.53976
O         34.38310        31.39542        -2.49487
O         24.62222        13.15166         2.07361
O         17.47606        15.98572        -1.49577
O         17.69938        31.14973        -2.59208
O         30.09223        21.87418         1.04559
O         27.94830        44.98592         2.73094
O         18.92372        20.55491         1.15951
O         30.09967        31.42931        -3.11132
O         11.64784        40.80406        -2.07158
O         17.38364        18.66741        -1.72172
O         24.91565        38.18486        -2.08231
O         17.45831        35.29489         0.76560
O         24.46249        21.13361         2.36093
H         23.98214        20.31612         2.64601
O         38.45607        33.30591        -0.18961
H         37.86951        33.02583        -0.92577
O         31.63548        22.51335        -2.80659
H         30.81463        21.98797        -2.97005
O         20.80780        11.47399        -1.23308
H         19.99863        10.97087        -1.46791
O         19.31187        27.40721         1.53892
H         20.10364        27.15436         2.05816
O         34.27506        33.84788        -2.68959
H         33.74447        33.67462        -3.49956
O          9.11949        25.00716        -1.21100
H          9.69671        25.56840        -1.76803
O         29.83723        11.87762        -1.20872
H         29.02253        11.97388        -1.75282
O         24.68631        47.69550        -0.86270
H         24.69356        48.53309        -1.38062
O         38.95304        26.73336         0.64873
H         38.52051        26.51769         1.49990
O         24.22932        43.67814         2.81345
H         24.97020        43.09257         3.09883
O         26.45311        30.89313        -3.19945
H         26.54845        31.78759        -3.60528
O         26.80446        52.61780         2.19433
H         27.43509        52.04090         2.67799
O         25.93261        16.17253         2.34636
H         26.69846        15.62443         2.62193
O         20.74846        28.53669        -2.40583
H         20.59320        29.35939        -2.92083
O         11.56983        38.10471        -2.72737
H         10.98884        38.86403        -2.95143
O         32.68653        36.38612        -2.55156
H         32.27074        36.05269        -3.37994
O         17.05982        42.31183        -1.83326
H         17.86241        42.81958        -2.08137
O          9.81445        33.23678        -1.59016
H         10.40688        33.10715        -2.35998
O         36.44565        22.88777        -2.28734
H         35.91959        23.23651        -3.03623
O         29.96097        20.38270        -2.26791
H         30.44027        19.73335        -2.82689
O         27.14011        12.28566        -1.40782
H         26.28219        12.51910        -1.82070
O         37.64208        30.44412         3.24848
H         36.85424        29.93084         2.96891
O         17.61498        50.83613        -2.21520
H         17.78811        49.87530        -2.37917
O         22.27761         9.94869         2.66015
H         21.51815         9.57878         3.15911
O         12.95363        35.83184        -2.83897
H         12.14553        36.30541        -3.13599
O         19.01159        48.22396         2.09495
H         19.74028        47.82642         2.61829
O         27.36817        27.41284         1.07662
H         26.66591        27.13797         1.70330
O         33.38972        42.19551        -1.30521
H         34.17232        41.68010        -1.59572
O         10.66024        33.56397         1.95880
H         10.07506        33.59408         2.74515
O         14.60715        27.25952         1.87059
H         14.37157        26.46597         2.40853
O         11.37658        42.42650         1.15148
H         11.97264        42.98367         1.69550
O         29.68550        46.69828         3.33144
H         29.06958        47.35025         3.73554
O         27.98708        24.34377        -2.03061
H         27.76858        25.20898        -2.47183
O         27.71768        26.96086        -2.55192
H         28.50487        27.10169        -3.13695
O         16.88720        22.32943        -2.28244
H         17.29155        23.12831        -2.69421
O         28.27642        12.08452         2.07925
H         27.44598        11.73691         2.46883
O         25.95577        39.31011         1.60545
H         26.20857        39.92376         2.33640
O         20.76164        54.41251        -2.29871
H         21.62504        54.01656        -2.56262
O         26.51923        40.42852        -1.83819
H         25.90459        39.80525        -2.30139
O         24.81052        50.73863        -1.34036
H         24.53852        51.54502        -1.83446
O         20.33944        16.34851         1.81394
H         20.99135        15.92677         2.41320
O         20.96880        44.51238        -1.46560
H         20.40309        45.20555        -1.86898
O         34.86477        38.16671        -1.29864
H         34.28175        37.61438        -1.87442
O         17.61277        50.53421         1.46354
H         18.10353        49.93542         2.07528
O         18.17198        33.66309        -2.76724
H         17.69563        32.95267        -3.26575
O         24.15867        52.58182         1.79026
H         24.96478        52.33586         2.30838
O         30.39411        26.81770        -3.04862
H         30.97974        27.31936        -3.66486
O          7.72492        33.65392        -0.30222
H          6.95190        33.04923        -0.39341
O         11.72812        36.71040         1.10413
H         12.05035        35.98622         1.68258
O         24.08982        47.06287         2.69765
H         24.09967        46.22684         3.21278
O          6.31535        31.36533         0.06496
H          5.43478        30.96182         0.21682
O         32.16062        25.59910         0.77234
H         31.33141        26.02372         1.10582
O         22.97908        18.86795         2.14728
H         23.21011        17.96294         2.45262
O         18.38296        26.94281        -1.98835
H         19.18921        27.35477        -2.38878
H          5.73756        31.21607         3.01099
H          6.18404        33.53345         3.59196
H          7.44769        26.91190         0.95573
H          6.39580        29.02205         1.66051
H          7.26942        35.79888         2.99888
H          8.30515        38.02908         2.26165
H          9.88370        22.49696         0.33749
H          8.59398        24.81494         0.77228
H          8.90924        40.24799         0.73231
H         10.00038        42.04970        -1.37114
H         12.40745        18.31613         0.41883
H         11.15997        20.43146         0.32177
H         11.11767        44.41483        -0.83102
H         12.38227        46.51102        -0.87244
H         14.93088        14.09972         0.83029
H         13.63847        16.21345         0.54240
H         13.60396        48.63363        -0.85029
H         14.87318        50.77267        -0.95016
H         17.36771         9.78842         0.96177
H         16.13954        11.95431         0.90123
H         16.13254        52.99315        -0.71225
H         17.37697        55.10562        -0.21868
H         19.88519         5.49574         1.37925
H         18.62999         7.64628         1.31027
H         18.60732        57.18396        -0.10117
H         19.82616        59.29839         0.06347
H         23.29842         2.12949         1.44100
H         21.13641         3.35956         1.48369
H         23.18779        62.63665         0.70794
H         21.04752        61.41225         0.38808
H         25.45191         3.34695         1.19688
H         26.69662         5.47250         0.90613
H         26.63454        59.32679         0.56527
H         25.35896        61.42327         0.71245
H         27.92844         7.59906         0.59199
H         29.18116         9.73762         0.65389
H         29.18521        55.17130         0.57247
H         27.90621        57.24898         0.52888
H         30.40676        12.13702         0.75175
H         31.60113        14.07213        -0.32315
H         31.64484        50.79808         2.09941
H         30.42841        53.33221         1.15264
H         32.83765        16.21924        -0.61386
H         34.05161        18.39239        -0.89429
H         34.01971        46.52988         1.21002
H         32.86340        48.62415         1.32764
H         35.27901        20.51672        -1.01681
H         36.34167        22.72469        -0.24147
H         36.28313        42.09493         1.71979
H         35.20204        44.32822         1.49485
H         37.78259        24.86403        -0.52850
H         38.57173        27.72492        -1.10724
H         38.23407        37.69429         2.61606
H         37.30240        39.89110         2.01094
H         39.61889        28.88661         1.62223
H         40.47378        30.88370         2.89813
H         40.53161        33.32447         3.11139
H         39.19017        35.45548         3.18411
