         424
 CSIRO Nanostructure Databank - Neutral Graphene Oxide Data Set
C          1.12685         3.59389         0.14919
C         -0.08637         4.30227         0.02408
C          1.08641         6.46255         0.50916
C         -0.13034         5.67072         0.11389
C          1.09494         7.90822        -0.02566
C         -0.07501         8.51330        -0.69638
C          1.16862        10.59104        -1.10493
C         -0.03946         9.81201        -1.11890
C          1.19101        11.99786        -1.10388
C         -0.02878        12.74786        -1.13851
C          1.19414        14.85425        -0.97345
C         -0.02330        14.11452        -1.07039
C          1.17099        16.27277        -0.84172
C          0.00420        16.95705        -0.49944
C          1.18800        19.07428        -0.18774
C          0.00665        18.32885        -0.20856
C          1.16778        20.49402         0.34016
C         -0.07090        21.27304        -0.01757
C          1.15395        23.40267         0.02045
C         -0.06761        22.62089        -0.07557
C          1.14612        24.79276         0.00300
C         -0.06425        25.56440         0.03300
C          1.17611        27.68909         0.18164
C         -0.05176        26.93059         0.07772
C          1.15610        29.12356         0.33222
C         -0.05482        29.86169         0.33835
C          1.14525        31.98613         0.43473
C         -0.05997        31.24212         0.39636
C          1.14239        33.43832         0.43373
C         -0.05055        34.19436         0.38859
C          1.18184        36.29566         0.38287
C         -0.02815        35.58824         0.33932
C          1.22876        37.73956         0.23642
C          3.58611         3.56337         0.22878
C          2.36703         4.28644         0.22461
C          3.61555         6.39191         0.09652
C          2.38259         5.71651         0.21927
C          3.67330         7.81388        -0.14737
C          2.41220         8.58341        -0.26841
C          3.69190        10.61451        -0.93782
C          2.44752         9.80559        -1.18205
C          3.68276        11.99118        -0.88722
C          2.43282        12.72922        -0.99501
C          3.68847        14.87100        -0.80446
C          2.43632        14.13476        -0.94720
C          3.69218        16.28172        -0.80023
C          2.42903        17.05885        -1.11329
C          3.62945        19.15555        -0.43505
C          2.42207        18.45215        -0.51292
C          3.64515        20.55368        -0.15034
C          2.42509        21.26965         0.02935
C          3.65512        23.39205         0.12075
C          2.41386        22.67025         0.03782
C          3.66889        24.81376         0.16972
C          2.42886        25.55181        -0.25443
C          3.62700        27.69294         0.39471
C          2.39785        27.00255         0.16467
C          3.62112        29.12021         0.50311
C          2.38888        29.83677         0.43114
C          3.61772        31.98567         0.46774
C          2.37789        31.27303         0.46042
C          3.61890        33.41592         0.46237
C          2.38650        34.13559         0.45761
C          3.64221        36.26742         0.53304
C          2.40997        35.56753         0.47919
C          3.64325        37.74476         0.83147
C          2.38602        38.42785         0.35784
C          6.06484         3.51558         0.23408
C          4.82060         4.22690         0.20038
C          6.09264         6.32783        -0.00069
C          4.84266         5.65230         0.09499
C          6.11374         7.73784        -0.20398
C          4.88416         8.45117        -0.36167
C          6.17940        10.59993        -0.49897
C          4.97720         9.83288        -0.98221
C          6.12563        12.01711        -0.47105
C          4.92687        12.72595        -0.68947
C          6.16138        14.88796        -0.62795
C          4.91958        14.15908        -0.67089
C          6.13368        16.30655        -0.76793
C          4.91695        16.99461        -0.76968
C          6.15052        19.18038        -0.37036
C          4.90529        18.50671        -0.92629
C          6.14343        20.52208        -0.08473
C          4.88382        21.26446        -0.07095
C          6.11591        23.32713         0.53518
C          4.86601        22.64044         0.17753
C          6.09798        24.81348         0.72241
C          4.84401        25.54958         0.44291
C          6.06185        27.67591         1.07495
C          4.84253        26.95559         0.53722
C          6.09014        29.13894         0.69482
C          4.86658        29.83567         0.56706
C          6.07599        31.98299         0.40411
C          4.85336        31.27302         0.47332
C          6.08032        33.41954         0.36063
C          4.84851        34.13163         0.42151
C          6.10307        36.27559         0.31320
C          4.86358        35.56508         0.43497
C          6.09957        37.72814         0.27273
C          4.91213        38.42838         0.42562
C          8.54612         3.34924         0.20337
C          7.27721         4.17009         0.18337
C          8.56068         6.29744        -0.03050
C          7.31970         5.59936         0.06602
C          8.56294         7.70130        -0.21323
C          7.35699         8.42862        -0.28143
C          8.62281        10.56099        -0.08272
C          7.36704         9.88263        -0.29623
C          8.60889        12.01723         0.18906
C          7.33514        12.77045        -0.08282
C          8.66036        14.85433        -0.51021
C          7.39337        14.20531        -0.41246
C          8.69325        16.29069        -0.89539
C          7.39473        17.10001        -1.03671
C          8.68673        19.17138        -0.23780
C          7.40214        18.36097        -0.14532
C          8.66581        20.56546        -0.03493
C          7.39823        21.26338         0.09795
C          8.62439        23.44800         0.03354
C          7.38753        22.62608         0.29012
C          8.58214        24.84551         0.59297
C          7.39207        25.54454         0.69492
C          8.59161        27.68742         0.75658
C          7.37298        26.96409         0.82784
C          8.57356        29.12396         0.68204
C          7.32387        29.82766         0.64248
C          8.52036        31.96047         0.38184
C          7.31675        31.26134         0.45457
C          8.52017        33.37712         0.00354
C          7.28883        34.14135         0.19993
C          8.57285        36.28063         0.04292
C          7.31626        35.56281         0.16052
C          8.56361        37.72684         0.03914
C          7.34489        38.41300         0.10224
C         11.02413         3.46973         0.32022
C          9.82446         4.15655         0.20906
C         11.04140         6.29785         0.17268
C          9.81255         5.57750         0.09493
C         11.06793         7.71329         0.00165
C          9.84937         8.41351        -0.54277
C         11.08545        10.59165        -0.22252
C          9.82002         9.87921        -0.17280
C         11.11619        11.97950        -0.23915
C          9.93475        12.77424         0.25777
C         11.13993        14.88846        -0.28339
C          9.87435        14.18687        -0.29960
C         11.16899        16.30368        -0.22731
C          9.95694        17.04684        -0.58927
C         11.14622        19.16810        -0.05215
C          9.91651        18.49382        -0.31202
C         11.14016        20.57557         0.15822
C          9.89847        21.29182         0.12753
C         11.11288        23.41030         0.49070
C          9.89536        22.69426         0.30812
C         11.11763        24.82595         0.63222
C          9.84780        25.52699         1.02344
C         11.06694        27.70445         0.65535
C          9.84369        27.00682         0.74566
C         11.05359        29.14270         0.62695
C          9.81197        29.81732         0.65492
C         11.10250        32.04112         0.51787
C          9.77441        31.28427         0.68921
C         11.09689        33.45431         0.12366
C          9.83325        34.14049        -0.11627
C         11.04487        36.30844         0.00747
C          9.80053        35.60708        -0.01543
C         11.02841        37.74684        -0.00657
C          9.80853        38.42388        -0.01472
C         13.49530         3.46510         0.54729
C         12.27340         4.15642         0.40068
C         13.50090         6.28257         0.54828
C         12.27254         5.58468         0.37084
C         13.47484         7.77790         0.73277
C         12.26615         8.44361         0.11404
C         13.59295        10.50022        -0.34793
C         12.30006         9.81473        -0.19912
C         13.63214        11.99083        -0.61343
C         12.31396        12.74848        -0.75100
C         13.59753        14.85481        -0.09545
C         12.36567        14.17472        -0.26008
C         13.60554        16.28175         0.05375
C         12.38109        17.00397        -0.04280
C         13.59277        19.13533         0.27124
C         12.37776        18.44145         0.02694
C         13.57703        20.54032         0.46700
C         12.36793        21.26382         0.40690
C         13.56194        23.42685         0.67796
C         12.35617        22.70240         0.54068
C         13.57249        24.83888         0.57315
C         12.32488        25.54846         0.59068
C         13.53903        27.69968         0.40136
C         12.31766        26.99203         0.57524
C         13.54740        29.12941         0.34559
C         12.29729        29.86971         0.46619
C         13.53303        31.96827        -0.20106
C         12.30291        31.25225         0.30973
C         13.53909        33.46575         0.04470
C         12.30091        34.16831         0.05944
C         13.52553        36.31500         0.01657
C         12.28177        35.61131         0.01147
C         13.48704        37.75923         0.01239
C         12.29095        38.43481        -0.00582
C         15.95715         3.47883         0.82819
C         14.70808         4.16064         0.71527
C         15.93232         6.34308         1.17312
C         14.69029         5.59315         0.75164
C         15.96927         7.75367         0.64585
C         14.79781         8.44019         0.42074
C         16.04602        10.53727        -0.00027
C         14.81797         9.82797         0.08467
C         16.04065        11.98463        -0.08039
C         14.86907        12.71077        -0.23184
C         16.07367        14.85364         0.09193
C         14.84456        14.14101        -0.05995
C         16.07900        16.27935         0.14893
C         14.83938        16.99880         0.17200
C         16.08612        19.12819         0.35738
C         14.83920        18.41040         0.30459
C         16.09809        20.53320         0.51207
C         14.82479        21.18074         1.02341
C         16.10969        23.44908         0.68628
C         14.82372        22.70538         0.94323
C         16.04227        24.87917         0.33681
C         14.81149        25.56558         0.42257
C         15.99339        27.70136         0.03355
C         14.78491        26.99271         0.28004
C         15.98460        29.13960        -0.00171
C         14.76576        29.82324         0.19919
C         16.02267        32.03877        -0.06485
C         14.77340        31.32129         0.39043
C         15.99827        33.42319        -0.09890
C         14.75482        34.16530         0.01048
C         16.00632        36.32479        -0.19517
C         14.75438        35.60483         0.00054
C         16.00437        37.75680        -0.24638
C         14.77139        38.54178         0.12925
C         18.42777         3.43243         0.75379
C         17.17547         4.17577         0.85611
C         18.44957         6.29484         0.73780
C         17.21309         5.58948         0.91077
C         18.50281         7.65897         0.52058
C         17.27465         8.49321         0.78916
C         18.50239        10.48486        -0.28421
C         17.25997         9.83608         0.12898
C         18.53468        11.99372        -0.17440
C         17.30260        12.66711         0.38762
C         18.54456        14.82616         0.14186
C         17.31628        14.15301         0.14438
C         18.55708        16.26424         0.13705
C         17.31766        16.98270         0.17189
C         18.55181        19.12075         0.16352
C         17.31959        18.40839         0.22672
C         18.54521        20.55016         0.15518
C         17.31317        21.26457         0.36783
C         18.51502        23.40639         0.05790
C         17.33555        22.68869         0.37700
C         18.48784        24.84353        -0.07777
C         17.24974        25.56588         0.04476
C         18.43340        27.67023        -0.43883
C         17.22589        26.98122        -0.12059
C         18.36902        29.11304        -0.73717
C         17.18499        29.88116        -0.30595
C         18.44425        32.02175        -0.64047
C         17.22165        31.28470        -0.31309
C         18.43618        33.42008        -0.66424
C         17.30070        34.17386        -0.03967
C         18.40630        36.33082        -0.73930
C         17.20923        35.63059        -0.41139
C         18.38692        37.75970        -0.78540
C         17.17131        38.44472        -0.51568
C         19.62341         4.04794         0.73137
C         20.79861         6.10437        -0.08401
C         19.76514         5.53995         0.85810
C         20.84081         7.41990        -0.30933
C         19.84953         8.35610         0.35663
C         21.01303        10.53221        -0.18558
C         19.78856         9.68263        -0.44933
C         21.01886        11.88318        -0.04717
C         19.82565        12.69445        -0.01103
C         21.01923        14.85423         0.21048
C         19.80668        14.08725         0.14086
C         21.01066        16.22093         0.18724
C         19.78816        16.97273         0.13113
C         20.99236        19.15338        -0.03776
C         19.78772        18.40401         0.08742
C         20.97712        20.52521        -0.11382
C         19.76086        21.26468        -0.02343
C         20.91773        23.44003        -0.42370
C         19.74208        22.69758        -0.12691
C         20.89066        24.80914        -0.53890
C         19.68175        25.54796        -0.37174
C         20.88338        27.72979        -0.68414
C         19.65427        26.98130        -0.53533
C         20.91876        29.08004        -0.81334
C         19.69126        29.86815        -0.97075
C         20.90201        32.08229        -0.74711
C         19.68626        31.32894        -0.81260
C         20.89707        33.44070        -0.87017
C         19.61900        34.14174        -1.25088
C         20.76044        36.37545        -1.34620
C         19.62171        35.64195        -1.04563
C         20.74945        37.78770        -1.33422
C         19.58037        38.47268        -1.07321
O          9.58876        16.62824        -2.00314
O          6.02395        23.92963         1.90209
O         18.30958        11.37134        -1.47057
O         18.83426        29.43613        -2.09149
O          1.69983         8.83093         0.97951
O         10.47490        31.86547         1.85208
O          9.14688        33.60821        -1.33131
O          7.75434        12.41209         1.31906
O         15.58658        23.25159         2.07564
O         13.80771        11.06914        -1.73199
O         13.58598        31.78274        -1.64445
H         12.82570        32.25598        -2.04283
O         17.34628         8.77783         2.24793
H         16.99544         7.96945         2.70467
O          5.88377        27.66768         2.54683
H          6.59197        28.22867         2.92925
O          1.02294         6.55961         1.96991
H          1.45496         7.41688         2.20337
O         19.50695        33.97940        -2.72302
H         19.47966        33.01472        -2.90482
O          9.97239         8.36381        -2.01435
H          9.14668         8.73877        -2.38903
O          2.46955        17.26742        -2.56935
H          3.27276        17.82241        -2.75082
O         20.25412         5.82003         2.21954
H         19.59469         5.45157         2.84564
O          8.60962        23.66598        -1.44346
H          8.70646        22.78521        -1.86640
O         10.23429        12.95548         1.68572
H          9.35564        13.00367         2.13630
O          5.24445         9.56905        -2.41042
H          4.40237         9.19770        -2.77557
O          4.89663        18.75276        -2.38079
H          5.74860        18.37561        -2.72551
O         13.33089         7.97194         2.19880
H         12.44950         7.62175         2.45278
O          7.35000        17.85879         1.22534
H          7.31129        18.62964         1.83025
O         20.33881         8.66814         1.68102
H         20.42342         7.80701         2.15903
O          7.30951        17.54586        -2.41560
H          8.21865        17.43190        -2.79715
O         12.03809        12.87048        -2.18642
H         12.46924        12.09117        -2.61414
O          2.53200         9.25286        -2.55545
H          2.30763         9.97933        -3.17585
O         15.82234         6.50470         2.65177
H         14.95917         6.96898         2.80213
O         17.63323        34.20099         1.41667
H         16.86112        34.59640         1.87647
O          9.83663        25.42459         2.51399
H          8.95394        25.72972         2.81776
O          2.52053        25.60828        -1.74003
H          1.72171        26.08323        -2.05574
O         14.69832        31.54058         1.83238
H         15.48950        31.13318         2.24262
O          8.55074         2.44334        -0.91836
H          8.58698         2.97784        -1.73806
O          1.14709        20.35244         1.80900
H          1.19603        21.25555         2.18908
O         14.69599        39.76708        -0.60881
H         14.61116        39.54596        -1.55866
O         14.79109        20.84111         2.44982
H         15.28811        21.55813         2.91085
O          3.59420        37.84797         2.31878
H          2.77764        37.38534         2.60609
O         17.38077        12.48777         1.83986
H         16.61384        12.94437         2.24484
O         19.84097         9.28994        -1.84650
H         19.51166        10.06020        -2.36500
H          1.12659         2.49522         0.12181
H         -1.01631         3.73937        -0.14460
H         -1.10576         6.17613         0.08955
H         -1.01275         7.94724        -0.77378
H         -0.97549        10.27265        -1.46972
H         -0.98779        12.22076        -1.22713
H         -0.98112        14.64849        -1.12346
H         -0.93886        16.40992        -0.36419
H         -0.94162        18.79293         0.09394
H         -1.02555        20.73867        -0.12572
H         -1.01537        23.14446        -0.26609
H         -1.03444        25.04885         0.05751
H         -1.01371        27.45867         0.10408
H         -1.01961        29.34041         0.28764
H         -1.02733        31.76178         0.39268
H         -1.02475        33.68807         0.36410
H         -0.97453        36.14299         0.26159
H          0.29304        38.26156        -0.01641
H          3.55806         2.46394         0.25420
H          2.39960        39.52160         0.23841
H          6.04461         2.41762         0.29793
H          4.92500        39.52892         0.40414
H          8.53575         2.69829         1.11939
H          7.34442        39.51336         0.09188
H         11.01421         2.37136         0.37478
H          9.79935        39.52401        -0.03530
H         13.49744         2.36506         0.54636
H         12.29795        39.53509        -0.00497
H         15.96845         2.37970         0.78580
H         14.88440        38.84040         1.21196
H         18.36483         2.33558         0.68476
H         17.15771        39.54463        -0.52202
H         20.54992         3.45772         0.66241
H         21.52827         5.42051        -0.54386
H         21.60726         7.84992        -0.97052
H         21.97737        10.00196        -0.18581
H         21.99016        12.38254         0.08597
H         21.98391        14.33120         0.25691
H         21.97125        16.75138         0.22763
H         21.95785        18.63499        -0.10403
H         21.93226        21.05348        -0.23090
H         21.87136        22.92007        -0.58220
H         21.82352        25.32930        -0.79043
H         21.83959        27.19704        -0.59758
H         21.88858        29.59592        -0.78873
H         21.85646        31.55636        -0.60187
H         21.84418        33.99700        -0.83785
H         21.68993        35.86122        -1.62730
H         21.67292        38.33608        -1.56704
H         19.55753        39.57169        -1.09447
