         294
 CSIRO Nanostructure Databank - Neutral Graphene Oxide Data Set
C          1.59721         1.96394         2.06285
C          1.70052         3.29650         2.51542
C          2.66283         1.38357         1.40471
C          2.81236         4.04906         2.16274
C          1.80770         7.24101         2.31982
C          1.66893         8.49879         1.66237
C          2.79957         6.37253         1.96240
C          2.50415         8.88517         0.65354
C          1.07769        10.89517        -0.12799
C          0.98061        12.11365        -0.68708
C          2.44699        10.35555         0.26416
C          2.19862        12.91376        -1.03424
C          0.98646        15.13285        -0.38417
C          1.03130        16.48792        -0.17159
C          2.24515        14.45047        -0.85541
C          2.27190        17.17776        -0.04315
C          2.40178        18.59439        -0.13068
C          3.83762         2.13642         1.11224
C          3.85930         3.54980         1.35049
C          5.03804         1.47060         0.77022
C          5.00380         4.33596         0.93331
C          3.67675         6.56038         0.78522
C          3.49074         7.91397         0.07842
C          4.96828         5.78081         0.65075
C          4.60882         8.41922        -0.86223
C          3.40112        10.63542        -0.90288
C          3.48586        12.14881        -1.09628
C          4.76274         9.93368        -0.59451
C          4.76834        12.80964        -0.84269
C          3.44493        14.89445        -0.01072
C          3.46479        16.38180         0.42386
C          4.72257        14.13129        -0.19063
C          4.76120        17.12529        -0.02083
C          3.57694        19.26613         0.11006
C          4.80740        18.54046         0.60732
C          6.23372         2.18832         0.70575
C          6.17923         3.61834         0.66582
C          7.50190         1.49054         0.75250
C          7.47314         4.37274         0.60401
C          6.07631         6.39800         0.05446
C          5.96336         7.68574        -0.69201
C          7.36573         5.73907        -0.04330
C          7.23646         8.41748        -1.05838
C          5.98740        10.65743        -1.09150
C          5.99891        12.07526        -0.91493
C          7.24116         9.90139        -1.46097
C          7.23406        12.71079        -0.59447
C          5.99696        14.92246        -0.38478
C          6.02202        16.31527         0.30599
C          7.22698        14.08720        -0.08669
C          7.30049        17.08627        -0.12819
C          6.14802        19.22954         0.38564
C          7.32321        18.54345         0.29171
C          8.70007         2.12956         0.53807
C          8.60057         3.53682        -0.02704
C          9.97050         1.47092         0.62876
C          9.94228         4.31240         0.05759
C          8.51783         6.35044        -0.53567
C          8.55601         7.76047        -0.83702
C          9.74255         5.51549        -0.89872
C          9.73206         8.44781        -1.09879
C          8.52169        10.57656        -1.01300
C          8.52354        11.96236        -0.43211
C          9.72235         9.90546        -1.04472
C          9.69706        12.80455        -1.00120
C          8.52816        14.81162         0.13979
C          8.49464        16.30852         0.37120
C          9.77866        14.16800        -0.32871
C          9.77222        17.01073         0.64042
C          8.63175        19.18562         0.36432
C          9.82247        18.51227         0.51686
C         11.15513         2.07736         0.24270
C         11.09241         3.42726        -0.36113
C         12.43047         1.43330         0.27026
C         12.35421         4.14209        -0.72968
C         11.05257         6.27219        -1.05372
C         10.99333         7.71904        -1.53584
C         12.24590         5.61976        -0.96197
C         12.27043         8.45117        -1.05342
C         10.99091        10.66979        -0.95893
C         11.00283        12.03518        -0.91152
C         12.27351         9.96153        -1.37774
C         12.24806        12.82970        -1.29627
C         10.94254        14.87827        -0.28165
C         10.97585        16.16449         0.41544
C         12.24679        14.37907        -0.89532
C         12.11901        16.57410         1.01103
C         11.09217        19.24881         0.59062
C         12.20053        18.76892         1.24077
C         13.62933         2.10734         0.06684
C         13.63201         3.52358        -0.29063
C         14.87249         1.30536         0.11166
C         14.76006         4.34380        -0.27321
C         13.51562         6.28142        -1.37102
C         13.52769         7.77690        -1.66156
C         14.81474         5.59866        -1.04191
C         14.84134         8.41199        -1.08638
C         13.54161        10.63265        -0.76280
C         13.57303        12.13380        -0.96884
C         14.80363         9.92129        -1.29145
C         14.75776        12.79749        -0.86967
C         13.45105        14.72920        -0.01400
C         13.44006        15.97741         0.80222
C         14.80080        14.29835        -0.59690
C         14.65609        16.91809         0.68168
C         13.59047        19.18815         1.33711
C         14.65436        18.30070         1.36632
C         16.00697         1.77277         0.69201
C         15.98740         3.94736         0.34077
C         17.38509         1.31968         0.87920
C         17.22611         4.35976        -0.11819
C         16.11622         6.30782        -1.10967
C         16.11513         7.72807        -1.66378
C         17.27963         5.63061        -0.81608
C         17.42338         8.44632        -1.22002
C         16.08418        10.67508        -1.46479
C         16.07483        12.12361        -1.07601
C         17.44691         9.98141        -1.71849
C         17.33577        12.72804        -0.55743
C         15.90980        14.64735         0.44364
C         15.97628        16.15357         0.70770
C         17.27644        14.02705         0.18750
C         17.15962        16.84324         0.80044
C         15.96658        18.86215         1.57459
C         17.13761        18.22454         1.25656
C         18.42330         2.22128         0.87855
C         18.48362         3.48973         0.00906
C         19.60801         1.86355         1.64558
C         19.57555         4.47594         0.45018
C         18.53857         6.11506        -1.51392
C         18.66646         7.70453        -1.77017
C         20.12048         5.46252        -0.53061
C         19.99290         8.41060        -1.38074
C         18.65247        10.62367        -1.09218
C         18.55304        11.86820        -0.24189
C         19.99585         9.99013        -1.39576
C         19.81831        12.73903        -0.29288
C         18.54735        14.78479         0.29002
C         18.48616        16.29372         0.27091
C         19.80706        14.08141        -0.07662
C         19.72768        16.87980         0.90563
C         18.42544        19.00775         1.38571
C         19.67673        18.16619         1.47265
C         20.50127         2.77231         2.10565
C         20.48579         4.17802         1.66784
C         21.60787         5.06624         1.89544
C         20.94501         6.51063         0.04701
C         21.19673         7.73226        -0.72572
C         21.64512         6.29432         1.25572
C         22.43835         8.52759        -0.48465
C         21.06111        10.53517        -0.40681
C         21.17449        12.06962        -0.47686
C         22.40603         9.86286        -0.54051
C         22.11467        12.62388         0.57751
C         21.11821        14.84829         0.10747
C         20.95691        16.18871         0.82248
C         22.08141        13.93022         0.85566
C         22.10963        16.80772         1.33094
C         20.83390        18.73949         2.01745
C         22.04670        18.05740         1.94853
O         12.02371        17.57256         1.97284
O         15.18250        10.40378        -2.60006
O          3.94764        14.06383         1.07850
O          2.76276        12.55565        -2.35633
O          6.54469         7.57965        -2.04087
O          2.88680         6.69291        -0.45612
O          7.81287        14.16990         1.28261
O         16.99235        12.90070        -1.95018
O          2.98251         5.28858         2.80723
O         18.68137         5.43065        -2.61657
O         12.42912        15.13738        -2.07801
O         21.00656         7.75308        -2.18146
O         13.36407        14.63537         1.42794
O          8.88105        16.59222         1.75103
O         19.22367         4.97113         1.74576
O          8.34967         3.33712        -1.38833
O         15.87222         3.01552         1.36637
O         14.19098         5.49025        -2.39307
O         11.54129         3.42099        -1.74916
O         18.00826        14.10124         1.46859
O         12.28755         8.26223         0.38210
H         11.79057         8.99829         0.80089
O         21.69878        15.14107        -1.18179
H         21.81981        14.27310        -1.64489
O          6.04145        16.13469         1.73027
H          6.85607        15.62676         1.97656
O          4.69634        17.34202        -1.44593
H          4.55502        16.47093        -1.89100
O         18.67215         7.79178        -3.20682
H         19.01356         6.91198        -3.52164
O          5.97803        15.05890        -1.83191
H          6.77915        15.57767        -2.10523
O         20.59691        10.15484         0.92327
H         21.22813        10.51988         1.57915
O          4.21162         8.16866        -2.20781
H          3.68602         7.33847        -2.20776
O          2.53478        15.05210        -2.15347
H          2.81808        14.31237        -2.74833
O          9.41306         4.96355        -2.18258
H         10.15820         4.36605        -2.46034
O          7.23413         9.94385        -2.92035
H          6.75138         9.13522        -3.21949
O         10.90224         7.70076        -2.97015
H         11.41012         8.47570        -3.31771
O         21.73350        12.43141        -1.76423
H         21.25396        11.90094        -2.45254
O         15.53532        13.97377         1.67353
H         16.31935        14.01605         2.26771
O          9.43521        13.01805        -2.40533
H         10.31041        13.09737        -2.86089
O          8.78117        11.73982         0.98725
H          8.56373        12.58125         1.46528
O         15.02069        15.01921        -1.81873
H         14.11258        15.07497        -2.26043
O         13.47111        10.47062         0.68376
H         13.91200        11.23715         1.11099
O          2.86869        11.16831         1.40101
H          2.31338        10.93187         2.17359
O         18.29684        11.42801         1.12731
H         19.00516        10.77615         1.35978
O          7.80010         4.62957         2.02372
H          7.02316         5.07064         2.42982
O         14.90618         8.15214         0.33439
H         14.03993         8.43727         0.73514
O         18.50705        16.64588        -1.14153
H         18.59610        17.61818        -1.21910
O         17.54801         8.43034         0.20190
H         16.64349         8.38207         0.60523
O         12.19340        12.81686        -2.75483
H         12.36534        13.79056        -2.99881
O          2.78983        10.06537        -2.05638
H          2.61924        10.79631        -2.69704
O         10.30089         4.74820         1.36293
H          9.48498         4.99577         1.86577
O         20.82701         4.90096        -1.60419
H         20.21590         4.78692        -2.38422
O         20.34989        10.38372        -2.74361
H         19.57144        10.15471        -3.31257
O         13.48062         7.95188        -3.06934
H         14.17813         7.37830        -3.46447
O         17.64883        10.01431        -3.14381
H         16.75700         9.90751        -3.55718
O          4.68569        18.50579         2.04768
H          5.21550        17.73664         2.36721
O         16.04582         7.71977        -3.09162
H         16.96716         7.57586        -3.43955
O         18.74813         2.98636        -1.31408
H         18.60361         3.72455        -1.96532
O          7.41075        17.13259        -1.57790
H          6.62530        17.63977        -1.89965
O          3.33820        16.37326         1.85557
H          3.83646        15.58396         2.17966
O          5.05440         9.96372         0.84216
H          4.68806        10.79799         1.22803
O         12.31532        10.09147        -2.80591
H         12.34633        11.05648        -3.03508
O         18.35019        19.92473         2.48284
H         18.25937        19.40684         3.30858
O         14.55718        17.39260        -0.70563
H         14.84559        16.65506        -1.31222
H          0.70479         1.37222         2.30784
H          0.92972         3.73027         3.16484
H          2.64535         0.31408         1.15263
H          1.18073         7.01098         3.18996
H          0.92287         9.20929         2.05097
H          0.17267        10.30592         0.08596
H         -0.00732        12.52242        -0.95226
H          0.02127        14.60630        -0.40733
H          0.09352        17.05922        -0.07761
H          1.51130        19.17046        -0.43008
H          5.04549         0.37355         0.69672
H          3.59820        20.36377         0.02441
H          7.48962         0.42579         1.03392
H          6.18266        20.30670         0.61902
H          9.99126         0.43574         1.00420
H          8.64346        20.28726         0.36699
H         12.46499         0.36698         0.54021
H         11.13874        20.22670         0.08816
H         14.84498         0.30151        -0.33713
H         13.81305        20.26062         1.47028
H         17.55271         0.33167         1.34452
H         16.02838        19.89065         1.96465
H         19.68117         0.82177         1.99543
H         18.52411        19.64484         0.45883
H         21.33543         2.44962         2.74629
H         22.39742         4.78111         2.60583
H         22.40491         7.03587         1.54812
H         23.39062         7.97527        -0.50542
H         23.32559        10.46550        -0.54373
H         22.83313        11.95393         1.07725
H         22.77280        14.35165         1.60029
H         23.08704        16.31736         1.22625
H         20.77555        19.74103         2.46605
H         22.96110        18.51733         2.34835
