         344
 CSIRO Nanostructure Databank - Neutral Graphene Oxide Data Set
C          1.24920         3.56770         1.15311
C          0.04860         4.17365         0.78064
C          1.21084         6.27786         0.39240
C          0.03266         5.51859         0.40836
C          1.09003         7.73256        -0.07529
C          0.12765         8.49361         0.82308
C          1.43985        10.61581         0.93838
C          0.19692         9.79434         1.12762
C          1.28002        12.04621         0.44241
C          0.07462        12.73941         0.49315
C          1.19059        14.85814        -0.02312
C          0.02697        14.11856         0.24205
C          1.18143        16.31110        -0.14464
C          0.01965        17.04073         0.09956
C          1.16811        19.17470        -0.15464
C          0.00830        18.44563         0.07316
C          1.16745        20.63525        -0.17637
C         -0.07779        21.38389        -0.00154
C          1.05921        23.50271        -0.48230
C         -0.13754        22.73018        -0.07251
C          1.05518        24.99743        -0.67166
C         -0.14879        25.76948        -0.28644
C          1.22525        27.69291         0.37417
C         -0.05083        27.01254         0.23791
C          1.30041        28.96277         1.08536
C          3.71079         3.61554         1.59748
C          2.44417         4.29596         1.12947
C          3.69264         6.39068         0.64280
C          2.43252         5.65510         0.73808
C          3.68395         7.73728         0.27617
C          2.45519         8.44827        -0.27571
C          3.69438        10.58796        -0.05489
C          2.49996         9.89642         0.16128
C          3.70631        12.04555        -0.05719
C          2.46948        12.75361         0.09395
C          3.63991        14.87922        -0.41858
C          2.43377        14.16434        -0.11531
C          3.59119        16.29943        -0.68083
C          2.39890        17.01513        -0.47408
C          3.59930        19.18153        -0.53860
C          2.40409        18.47047        -0.43247
C          3.67937        20.61939        -0.10077
C          2.35407        21.31810        -0.30134
C          3.65054        23.52591        -0.40751
C          2.36025        22.79583        -0.24599
C          3.64368        24.99443        -0.59476
C          2.36172        25.78340        -0.83122
C          3.65274        27.77032         0.04325
C          2.38004        27.10927        -0.11193
C          3.62491        29.26107         0.28118
C          2.44648        29.67482         1.13309
C          6.19057         3.65684         1.27064
C          4.98482         4.31962         1.19370
C          6.16023         6.40090         0.59952
C          4.93851         5.70699         0.82050
C          6.13993         7.79073         0.38044
C          4.91276         8.46094         0.18849
C          6.17547        10.50674        -0.45011
C          4.90293         9.84585        -0.17667
C          6.16399        12.06883        -0.58359
C          4.88330        12.76515        -0.31664
C          6.12815        14.85024        -0.84207
C          4.85691        14.17121        -0.47464
C          6.11671        16.29796        -1.18873
C          4.79440        17.00706        -1.15355
C          6.09341        19.26635        -1.01200
C          4.80635        18.53004        -1.02476
C          6.08936        20.63488        -0.95981
C          4.87848        21.37598        -0.65419
C          6.13968        23.49538        -0.82605
C          4.89405        22.75598        -0.66360
C          6.11694        25.01096        -0.91602
C          4.82909        25.66982        -0.47485
C          6.07590        27.60210         0.55992
C          4.83394        27.07718        -0.11813
C          6.10769        29.10846         0.68963
C          4.94273        29.83095         0.71108
C          8.65392         3.61395         0.97496
C          7.43822         4.30055         0.95747
C          8.61210         6.33810         0.21543
C          7.42950         5.69621         0.60820
C          8.52963         7.75352        -0.31640
C          7.45328         8.52117         0.46643
C          8.70396        10.68166         0.03567
C          7.41971         9.92060        -0.05297
C          8.64695        12.10352        -0.45482
C          7.44725        12.77176        -0.42736
C          8.64759        14.93419        -0.78883
C          7.40249        14.26499        -0.26737
C          8.58427        16.38462        -0.96838
C          7.38643        17.06551        -1.08126
C          8.59445        19.29750        -1.02856
C          7.35439        18.53899        -1.44817
C          8.60394        20.66008        -1.08826
C          7.32246        21.38831        -1.43648
C          8.59002        23.62393        -1.28728
C          7.32033        22.84333        -1.03330
C          8.59774        24.98860        -0.62538
C          7.38359        25.65404        -0.39917
C          8.58170        27.65186         0.34074
C          7.37121        26.97764         0.09631
C          8.57761        29.03577         0.79370
C          7.36498        29.72930         0.94259
C         11.09778         3.57796         0.67360
C          9.87196         4.26404         0.63842
C         11.06047         6.30393        -0.13887
C          9.85271         5.64766         0.21662
C         11.03001         7.66942        -0.78960
C          9.84181         8.50675        -0.38175
C         11.11022        10.60462        -0.78260
C          9.89237         9.87274        -0.43822
C         11.06708        12.04732        -0.91810
C          9.89038        12.79240        -0.72995
C         11.02265        14.99096        -1.51368
C          9.82099        14.23391        -0.95997
C         11.04017        16.42858        -1.03974
C          9.84928        17.10092        -0.92132
C         11.08877        19.27504        -0.79176
C          9.79970        18.55028        -0.51213
C         11.06840        20.67100        -0.93186
C          9.85014        21.41841        -0.99027
C         11.06369        23.56657        -0.85086
C          9.85896        22.83420        -1.01457
C         11.07558        24.95131        -0.53351
C          9.82516        25.63984        -0.35025
C         11.05587        27.68894         0.29509
C          9.82370        26.99393         0.09957
C         11.03730        29.04024         0.77980
C          9.80817        29.68537         1.02169
C         13.54092         3.55234         0.46506
C         12.31076         4.24279         0.39971
C         13.52831         6.34478        -0.14919
C         12.29218         5.64044         0.02086
C         13.52031         7.73967        -0.48069
C         12.32926         8.43538        -0.70475
C         13.58431        10.56319        -1.12478
C         12.29741         9.85194        -0.94009
C         13.57464        12.03297        -1.35952
C         12.24756        12.76355        -1.57863
C         13.50488        14.94191        -1.06230
C         12.31442        14.24872        -1.26529
C         13.52389        16.39716        -0.93700
C         12.30868        17.11820        -0.91237
C         13.56570        19.24096        -0.72913
C         12.30790        18.54550        -0.81767
C         13.59048        20.65525        -0.78308
C         12.35018        21.36179        -1.11820
C         13.59725        23.55225        -0.61830
C         12.35150        22.88590        -1.02577
C         13.54713        24.95516        -0.41279
C         12.31601        25.65312        -0.36581
C         13.50188        27.79193         0.15621
C         12.30204        27.05748         0.00133
C         13.48447        29.10000         0.73477
C         12.26502        29.70809         1.02582
C         16.00408         3.54836         0.45118
C         14.76518         4.22885         0.31379
C         15.99244         6.35076         0.14318
C         14.76255         5.65346         0.08584
C         15.93584         7.85163         0.22204
C         14.86113         8.40547        -0.70103
C         16.00558        10.60955        -0.52087
C         14.83552         9.91610        -0.64787
C         16.06809        12.05093        -0.97869
C         14.73425        12.76509        -0.70128
C         15.97686        14.93601        -0.85305
C         14.76717        14.25177        -0.95751
C         16.00527        16.37095        -0.76364
C         14.77679        17.08128        -0.76893
C         15.98236        19.22219        -0.30649
C         14.78035        18.51101        -0.60559
C         15.95330        20.63024        -0.21853
C         14.78443        21.37582        -0.54854
C         16.02853        23.52421        -0.17287
C         14.79569        22.82082        -0.48740
C         16.06687        24.94090        -0.15316
C         14.82102        25.69470        -0.41675
C         16.10268        27.95530         0.00850
C         14.78926        27.20444        -0.24583
C         15.95355        29.22075         0.82856
C         14.72440        29.77553         1.05333
C         18.47804         3.56014         0.56139
C         17.21735         4.23896         0.42019
C         18.45831         6.39680         0.32717
C         17.21107         5.67343         0.29995
C         18.47564         7.82722         0.17824
C         17.26244         8.53858         0.00585
C         18.48596        10.64832        -0.10842
C         17.26447         9.92681        -0.20476
C         18.45135        12.14786         0.10159
C         17.23952        12.84356        -0.45953
C         18.50358        14.94415        -0.86821
C         17.22141        14.19226        -0.63080
C         18.45194        16.37579        -0.41972
C         17.25980        17.06273        -0.49273
C         18.42759        19.17537         0.02698
C         17.24256        18.50359        -0.20550
C         18.41611        20.56878         0.47717
C         17.11211        21.34745         0.32125
C         18.41412        23.47636         0.46580
C         17.19550        22.80922         0.19177
C         18.44290        24.89604         0.45832
C         17.25669        25.61179         0.20544
C         18.40173        27.74231         1.12298
C         17.18073        27.05013         0.59833
C         18.37979        29.22443         1.24252
C         17.17450        29.88850         1.20455
C         19.65363         4.25649         0.57597
C         20.90130         6.40943         0.43605
C         19.67155         5.68915         0.45266
C         20.92393         7.77817         0.29525
C         19.71818         8.53122         0.16358
C         20.93079        10.73510         0.16086
C         19.70273         9.96576         0.07618
C         20.95949        12.08742        -0.00109
C         19.75287        12.85366        -0.21290
C         20.98224        14.98143        -0.64310
C         19.76287        14.20131        -0.48114
C         20.96175        16.32008        -0.48420
C         19.73755        17.02870         0.04843
C         20.91263        19.23226         0.41825
C         19.76650        18.52791        -0.26664
C         20.87978        20.54309         0.74335
C         19.67004        21.33475         0.62086
C         20.79066        23.46176         1.22068
C         19.63033        22.71567         0.75693
C         20.82945        24.80803         1.22764
C         19.77333        25.62787         0.53648
C         20.84305        27.78855         1.22829
C         19.70738        27.05689         1.04413
C         20.79933        29.19609         1.53351
C         19.62366        29.89018         1.52469
O          4.59247        17.84763        -2.33805
O          6.15698        11.23177        -1.74755
O          0.88743        24.08985        -1.82456
O          6.18575        15.24706        -2.24214
O         12.45122        22.19020        -2.31985
O         14.82818        26.61722        -1.58914
O         13.85153        11.15081        -2.50332
O         17.52566        20.81949         1.62680
O          3.07380        23.25634         0.97606
O         17.38397        27.14291         2.04357
O          8.56810        23.88207        -2.73962
H          8.31098        23.02741        -3.16851
O          8.06282         7.65991        -1.68897
H          8.81151         7.28676        -2.21351
O          9.64592        18.54620         0.96035
H         10.44217        18.11275         1.33519
O         10.83622        15.09404        -2.95931
H         11.05602        14.21164        -3.34546
O          1.99765        10.78065         2.30077
H          1.35122        11.30699         2.81763
O          2.42169        26.14840        -2.24776
H          2.12053        25.35967        -2.75440
O          8.95640        10.88885         1.48646
H          8.84044         9.99791         1.91189
O         18.29333        12.29354         1.57031
H         19.05147        11.82841         1.98557
O          3.88616        20.61433         1.35762
H          3.74138        21.54851         1.65173
O          7.31466        18.58801        -2.92219
H          6.47132        18.14615        -3.18883
O          5.93042        27.11270         1.94926
H          6.69941        27.44972         2.45694
O         10.81178         7.39633        -2.23841
H         10.92318         8.25030        -2.71008
O          2.69965         8.45332        -1.72649
H          3.55184         8.91644        -1.88263
O          3.73334         2.24284         1.18469
H          3.73973         2.22027         0.20600
O         16.61410        28.39856        -1.27498
H         16.20441        27.81924        -1.96110
O         20.21388        25.75386        -0.86440
H         20.31697        24.84688        -1.22280
O         20.00110        18.64224        -1.69976
H         20.03698        19.59331        -1.93140
O          7.87729         8.48500         1.88154
H          7.08633         8.66425         2.43316
O          3.36923        29.86168        -1.04374
H          2.66030        29.33245        -1.46916
O         19.77401        16.91001         1.50071
H         19.73042        15.95722         1.72710
O         11.93363        12.66877        -3.00834
H         12.49705        11.94198        -3.37274
O          7.24245        21.39695        -2.90621
H          7.29080        20.44449        -3.19097
O         15.51600         8.18408         1.58088
H         16.18346         7.82218         2.20040
O          6.13573        25.28207        -2.36044
H          6.98379        24.90629        -2.71537
O         16.33116        12.02147        -2.41103
H         15.58892        11.52332        -2.83390
O          0.37711         7.68792        -1.33685
H          1.04053         7.84325        -2.04890
O          7.31890        14.52990         1.17187
H          8.08594        14.09547         1.60273
O         18.55938        15.01130        -2.34261
H         18.33495        14.12005        -2.68832
O         15.25886         8.06645        -2.06103
H         14.61940         8.48155        -2.67722
O         14.45945        12.62772         0.72539
H         15.21794        13.01154         1.21617
H          1.27211         2.51090         1.45428
H         -0.88450         3.59302         0.78251
H         -0.91202         5.98611         0.09807
H         -0.78762         7.94187         1.09218
H         -0.61670        10.24903         1.71706
H         -0.85742        12.20927         0.73592
H         -0.95056        14.61674         0.28613
H         -0.92044        16.52504         0.33484
H         -0.94510        18.95267         0.26892
H         -0.99642        20.83045         0.23441
H         -1.09634        23.24983         0.06181
H         -1.13111        25.28879        -0.39431
H         -0.95701        27.54505         0.56248
H          0.40070        29.30873         1.61695
H          3.68217         3.59640         2.72572
H          2.49107        30.63198         1.67362
H          6.20100         2.59526         1.55948
H          4.98741        30.91750         0.88928
H          8.67747         2.54988         1.25337
H          7.38936        30.80281         1.18494
H         11.11725         2.51312         0.94914
H          9.80823        30.72674         1.37613
H         13.54132         2.47386         0.68284
H         12.24917        30.72625         1.44112
H         16.00089         2.45939         0.60829
H         14.65528        30.74508         1.57012
H         18.47853         2.46436         0.65506
H         17.12933        30.95507         1.47416
H         20.61206         3.72670         0.67784
H         21.84461         5.85193         0.52968
H         21.89526         8.29014         0.27778
H         21.88093        10.20567         0.31134
H         21.92865        12.60615        -0.00344
H         21.92058        14.47316        -0.91311
H         21.88318        16.90223        -0.63209
H         21.85117        18.67331         0.54846
H         21.79153        21.02150         1.13049
H         21.62729        22.90080         1.66139
H         21.70768        25.32299         1.64335
H         21.83106        27.31941         1.11663
H         21.74694        29.71770         1.72773
H         19.61223        30.97437         1.70916
