         404
 CSIRO Nanostructure Databank - Neutral Graphene Oxide Data Set
C          1.14791         2.05341        -0.02816
C          1.12560         3.40894        -0.27745
C          2.34775         1.30632         0.00205
C          2.31755         4.10210        -0.74917
C          1.24421         6.34074        -1.01949
C          1.29920         7.73828        -1.26619
C          2.40023         5.58483        -0.85268
C          2.50216         8.38761        -1.41809
C          1.56635        10.40814        -2.50084
C          1.74858        11.69566        -2.98685
C          2.60024         9.79268        -1.77179
C          2.87520        12.42566        -2.58264
C          1.85200        15.62172        -2.96907
C          1.67496        16.88108        -2.43868
C          2.91381        14.80215        -2.51060
C          2.64768        17.39540        -1.54983
C          2.59576        18.77045        -1.16859
C          3.59669         1.93407        -0.12522
C          3.64604         3.32836        -0.60678
C          4.81236         1.27971         0.15699
C          4.87319         4.10501        -0.38869
C          3.68205         6.21857        -0.87794
C          3.79757         7.62759        -1.40461
C          4.87210         5.53037        -0.56704
C          4.93900         8.42841        -0.81928
C          3.76892        10.52487        -1.41955
C          3.84294        11.90996        -1.70160
C          4.92453         9.83315        -0.85516
C          4.84858        12.74027        -0.96014
C          3.80221        15.18025        -1.50580
C          3.72850        16.56240        -1.10053
C          4.80264        14.26181        -0.84019
C          4.79980        17.17477        -0.41144
C          3.66688        19.36001        -0.55292
C          4.83373        18.58581        -0.25040
C          6.04324         1.97549         0.13296
C          6.04162         3.41444        -0.04636
C          7.27084         1.30377         0.32166
C          7.27669         4.13162         0.07129
C          6.09406         6.27104        -0.33363
C          6.09064         7.72781        -0.38242
C          7.26870         5.57625        -0.01086
C          7.22030         8.47010         0.03748
C          6.09564        10.58637        -0.50723
C          6.09929        12.02073        -0.56671
C          7.25768         9.88674        -0.05229
C          7.25304        12.74111        -0.20306
C          6.04388        14.92460        -0.34167
C          5.93964        16.36978         0.14620
C          7.18161        14.19692        -0.07333
C          7.23156        17.13337         0.04923
C          6.04292        19.25103         0.07401
C          7.27000        18.54326         0.09995
C          8.50080         1.99726         0.33868
C          8.47392         3.43088         0.23806
C          9.73467         1.29759         0.50058
C          9.73529         4.18685         0.23641
C          8.46411         6.29179         0.35998
C          8.36375         7.73718         0.60382
C          9.67512         5.63589         0.54294
C          9.66001         8.50201         0.87670
C          8.47909        10.62030         0.22444
C          8.47594        12.04714         0.11529
C          9.68066         9.93816         0.56057
C          9.71131        12.76573         0.32209
C          8.42001        14.89325         0.35872
C          8.45527        16.40421         0.33716
C          9.70623        14.18712         0.30391
C          9.73796        17.08366        -0.08193
C          8.52522        19.23475         0.25089
C          9.74675        18.56771         0.20962
C         10.97544         1.95047         0.57420
C         11.01397         3.42076         0.39374
C         12.20189         1.29158         0.77367
C         12.20447         4.13637         0.87835
C         10.87635         6.34260         0.90028
C         10.91711         7.73655         0.95489
C         12.08849         5.55468         1.21463
C         12.15781         8.47726         1.12207
C         10.92589        10.62148         0.69585
C         10.93509        12.05690         0.57007
C         12.10984         9.91988         1.05238
C         12.15297        12.77069         0.77757
C         10.89703        14.95029         0.49514
C         10.95911        16.35033         0.38860
C         12.11309        14.23069         0.86381
C         12.20465        17.05235         0.30903
C         10.99421        19.22473         0.26821
C         12.21960        18.51626         0.19344
C         13.43368         2.00535         0.85090
C         13.40592         3.45724         0.99132
C         14.66846         1.34792         0.82202
C         14.65447         4.19498         1.05757
C         13.41011         6.32978         1.39628
C         13.36934         7.79645         1.27063
C         14.64034         5.59087         1.11268
C         14.68753         8.45743         1.60774
C         13.34080        10.68568         1.32330
C         13.37993        12.11952         0.99862
C         14.66106         9.97150         1.52266
C         14.64017        12.80762         0.97293
C         13.45545        14.99336         0.76749
C         13.41552        16.36894         0.30372
C         14.68429        14.19687         0.68144
C         14.60299        16.99715        -0.38715
C         13.45505        19.17480         0.15766
C         14.69758        18.48504        -0.04770
C         15.90389         2.06296         0.77284
C         15.89292         3.49225         0.84104
C         17.13502         1.38011         0.61980
C         17.11804         4.21602         0.69435
C         15.83937         6.34381         0.71697
C         15.84544         7.84217         0.84770
C         17.12475         5.63982         0.65322
C         17.14548         8.53692         0.91763
C         15.91457        10.67892         1.19371
C         15.88791        12.08565         1.03050
C         17.13479         9.96254         1.04879
C         17.12281        12.79855         0.89563
C         15.89943        14.87717         0.47630
C         15.91006        16.24389        -0.12547
C         17.11477        14.19804         0.67288
C         17.19313        17.00782        -0.19815
C         15.89714        19.14982        -0.06851
C         17.17671        18.49912        -0.55374
C         18.35714         2.06732         0.47408
C         18.34303         3.51420         0.50132
C         19.58944         1.37291         0.32059
C         19.53460         4.24801         0.30461
C         18.32976         6.36930         0.59608
C         18.33657         7.81723         0.74217
C         19.55962         5.65936         0.42851
C         19.58969         8.51861         0.78878
C         18.37366        10.67830         0.95933
C         18.37488        12.09973         0.93881
C         19.59934         9.94432         0.88641
C         19.62081        12.81389         0.86283
C         18.36313        14.97077         0.84914
C         18.38155        16.44609         0.52219
C         19.65601        14.26768         0.86281
C         19.67028        17.14180         0.40499
C         18.45044        19.20044        -0.14310
C         19.62689        18.55600         0.13270
C         20.80313         2.04766         0.07752
C         20.74663         3.51459        -0.08703
C         22.04766         1.39909        -0.01032
C         22.06455         4.28470        -0.09486
C         20.82271         6.36660         0.50523
C         20.81904         7.80170         0.73811
C         22.02440         5.67347         0.36902
C         22.03786         8.51798         0.82089
C         20.83344        10.65883         0.86765
C         20.81727        12.08390         0.84325
C         22.06760         9.93082         0.83847
C         22.09626        12.80488         0.71573
C         20.83420        15.00687         0.85002
C         20.85983        16.45570         0.72808
C         22.12941        14.30537         0.73868
C         22.10800        17.15851         0.75310
C         20.90337        19.36025         0.25406
C         22.15974        18.52241         0.39933
C         23.29175         2.10516        -0.04490
C         23.31970         3.52163         0.01610
C         24.54256         1.41242        -0.01573
C         24.54944         4.21851         0.10714
C         23.30706         6.29114         0.71485
C         23.31187         7.79851         0.94737
C         24.56325         5.63760         0.31301
C         24.57059         8.51182         0.68887
C         23.33439        10.61173         0.90119
C         23.32173        12.06905         1.13402
C         24.55276         9.95257         0.77757
C         24.59806        12.82776         1.25142
C         23.40246        15.00707         1.02721
C         23.35912        16.49993         1.29262
C         24.58750        14.30574         1.09291
C         24.66807        17.18832         0.94490
C         23.38741        19.15080         0.20124
C         24.65189        18.51074         0.40678
C         25.75614         2.08502         0.03203
C         25.78393         3.51056         0.05868
C         27.03777         1.28753         0.13554
C         27.01731         4.24750         0.01524
C         25.75293         6.37101         0.22552
C         25.72454         7.80819         0.37779
C         27.00063         5.67370        -0.01754
C         26.91239         8.59271        -0.01597
C         25.82594        10.66947         0.83353
C         25.87623        12.09120         1.13046
C         26.98246         9.98952         0.47797
C         27.06893        12.79588         1.21939
C         25.85780        14.98446         1.13930
C         25.86894        16.41530         1.10520
C         27.08919        14.26220         1.17638
C         27.13989        17.03494         1.20374
C         25.80132        19.19855        -0.11355
C         27.10564        18.94875         0.33673
C         28.31278         2.10478         0.05777
C         28.26494         3.55220        -0.00447
C         29.51692         1.43626         0.05696
C         29.46532         4.29251        -0.08146
C         28.21373         6.38571        -0.24573
C         28.16111         7.86086        -0.43100
C         29.43969         5.69312        -0.28698
C         29.44418         8.65210        -0.45237
C         28.28427        10.57910         0.81911
C         28.32500        12.02387         1.30059
C         29.51303        10.00623         0.17802
C         29.63942        12.75097         1.29516
C         28.31601        14.95818         1.03325
C         28.37253        16.38625         0.96059
C         29.60000        14.22690         1.12024
C         29.59775        17.15093         0.72319
C         28.35020        19.13690        -0.27551
C         29.57135        18.50800         0.16114
C         30.77730         2.12490         0.06375
C         30.75140         3.59258         0.10059
C         32.00539         1.49280         0.14848
C         32.07294         4.31492        -0.17617
C         30.70356         6.39539        -0.64542
C         30.71821         7.90943        -0.70198
C         32.01006         5.72891        -0.55709
C         32.00489         8.60242        -0.50259
C         30.85639        10.57118         0.53758
C         30.91548        11.97635         1.04008
C         32.06053         9.93275        -0.05891
C         32.22704        12.75589         0.97832
C         30.79024        14.91008         0.54421
C         30.81981        16.38979         0.66642
C         32.07616        14.16301         0.42251
C         32.08990        16.95519         0.75395
C         30.73575        19.18670        -0.32195
C         32.05513        18.97096         0.11784
C         33.26587         2.15149        -0.08332
C         33.27543         3.53340        -0.49493
C         34.45052         1.41946         0.23067
C         34.40028         4.27637        -0.98321
C         33.18702         6.43589        -0.81330
C         33.20031         7.88031        -0.76929
C         34.42551         5.71679        -0.99691
C         34.43957         8.56811        -0.79845
C         33.29375        10.64443        -0.08019
C         33.35324        12.03155         0.25113
C         34.47569         9.97107        -0.53297
C         34.53111        12.75900         0.02640
C         33.34623        14.92049         0.30682
C         33.32826        16.33452         0.35734
C         34.54543        14.20929         0.13697
C         34.51177        17.09197         0.05862
C         33.28580        19.29931        -0.44984
C         34.50310        18.55732        -0.16050
C         35.68846         1.73356        -0.36213
C         35.59756         3.63934        -1.39070
C         36.99530         1.62486         0.12011
C         36.84483         4.25939        -1.54024
C         35.63422         6.41698        -1.27451
C         35.64501         7.86038        -1.12656
C         36.85708         5.70807        -1.58586
C         36.83246         8.60902        -1.27366
C         35.70592        10.68579        -0.61365
C         35.73348        12.08482        -0.35372
C         36.90195        10.00128        -0.99206
C         36.96784        12.79790        -0.39512
C         35.75295        14.93787        -0.03724
C         35.71266        16.36125        -0.12672
C         36.98778        14.21624        -0.21340
C         36.98227        17.03900        -0.44489
C         35.70050        19.24831        -0.24657
C         36.99773        18.58425        -0.40136
C         38.11068         2.27279        -0.49959
C         38.02842         3.40344        -1.39546
C         39.41682         1.81954        -0.12542
C         39.24781         3.83887        -1.94940
C         38.02271         6.47379        -1.89373
C         38.00890         7.93070        -1.80473
C         39.23749         5.93398        -2.37609
C         39.38993         8.66928        -1.73968
C         38.15829        10.69993        -0.95450
C         38.18615        12.08639        -0.60364
C         39.39184        10.01619        -1.15822
C         39.44039        12.76374        -0.46467
C         38.22741        14.90475        -0.20863
C         38.24760        16.33141        -0.21079
C         39.46249        14.17904        -0.25884
C         39.45670        17.04113        -0.10980
C         38.25096        19.20879        -0.02155
C         39.44393        18.48723         0.02180
C         40.58595         2.40715        -0.57044
C         40.53103         3.48475        -1.49536
C         41.68664         4.27056        -1.87730
C         40.52123         6.48912        -2.13981
C         40.60468         7.84769        -1.70298
C         41.67963         5.61161        -2.17183
C         41.78258         8.46936        -1.22722
C         40.63148        10.61687        -0.83661
C         40.66365        12.03312        -0.52387
C         41.80715         9.81091        -0.87343
C         41.87442        12.74082        -0.34564
C         40.69790        14.87413        -0.14143
C         40.70144        16.32488         0.00160
C         41.89124        14.11649        -0.16897
C         41.87616        17.04520         0.23625
C         40.68134        19.15762         0.29013
C         41.85888        18.44979         0.38290
O         27.22771         8.34503        -1.44611
O         35.55689         2.27138        -1.66591
O         18.14965        15.99753         1.90033
O         16.77918        16.18618        -1.34315
O         13.93978        10.48819         2.68956
O         15.54541         7.26003        -0.44791
O          3.07842        13.63208        -3.24729
O         10.58647         3.87865        -0.94932
O         23.82047        12.43836         2.46770
O         23.35589         6.86038         2.07338
O         30.61896         7.13343        -1.93180
O         38.60683         8.57657        -2.97035
O         31.55645         4.12932         1.20920
O         22.23397        13.53795        -0.54712
O         21.32860         4.01535        -1.33720
O         37.01907        17.82525        -1.67497
O         12.63983         5.83357         2.54149
O         31.20011        14.32548        -0.75017
O          8.71846         8.15763         1.95958
O         32.17699        18.22458         1.31691
O         29.35551         9.87028        -1.26547
O          2.99256         3.49326        -1.90417
O         28.34917        10.90428         2.24148
O         31.03157        10.84174         1.97138
O         12.77006        14.77663         2.04556
O         27.17269        18.35620         1.62656
O         39.17664         4.70747        -3.05169
O          4.19333        13.40654         0.19857
O         29.80692        13.63905         2.45571
O          8.37283        15.69566         1.62508
O          5.67910        16.25087         1.59214
H          6.52335        15.93365         2.00182
O         17.16460        18.62666        -2.01051
H         16.98455        17.72864        -2.37598
O          4.16126         7.46211        -2.83431
H          3.53881         6.80696        -3.21717
O         23.22220        16.61985         2.76460
H         24.02717        16.22778         3.16689
O         27.05998         0.24196        -0.84922
H         27.03158         0.65595        -1.73601
O         14.30798        16.89961        -1.81035
H         15.17057        16.79974        -2.27454
O          9.72319        16.95676        -1.54762
H         10.52817        17.40151        -1.89043
O         32.67501        12.93612         2.34510
H         32.39145        12.14013         2.84864
O         21.02044        20.27863        -0.83918
H         20.89941        19.78280        -1.67456
O         14.96250         8.11892         2.99678
H         14.40748         8.72090         3.54516
H          0.21256         1.54810         0.25306
H          0.21118         3.98462        -0.07514
H          2.30887         0.24172         0.27378
H          0.26023         5.85443        -0.97579
H          0.35472         8.29620        -1.33979
H          0.67155         9.83563        -2.77928
H          1.02316        12.15479        -3.67017
H          1.17770        15.22729        -3.74010
H          0.84306        17.52025        -2.76588
H          1.71600        19.36467        -1.45456
H          4.80307         0.20880         0.40938
H          3.67063        20.43773        -0.33696
H          7.26861         0.20959         0.43732
H          6.04210        20.34426         0.19377
H          9.70277         0.20176         0.59846
H          8.50524        20.32471         0.39988
H         12.22153         0.19203         0.81890
H         11.01770        20.32331         0.33549
H         14.69213         0.25012         0.75076
H         13.47593        20.27373         0.22275
H         17.13213         0.28046         0.58503
H         15.90968        20.23696         0.10810
H         19.59094         0.27472         0.39084
H         18.47912        20.28829        -0.31048
H         22.07586         0.30022         0.04373
H         20.83245        19.99254         1.18357
H         24.54274         0.31255        -0.03339
H         23.38234        20.19050        -0.15816
H         27.02964         0.76497         1.13340
H         25.63856        19.92835        -0.92073
H         29.51825         0.33621         0.07531
H         28.41937        19.84026        -1.11914
H         32.02942         0.40112         0.28577
H         30.57506        19.96627        -1.08240
H         34.38377         0.63096         0.99553
H         33.35141        20.10991        -1.19079
H         37.18204         1.03070         1.02712
H         35.67691        20.34714        -0.30657
H         39.47966         0.97334         0.57427
H         38.24440        20.26448         0.28882
H         41.55823         2.05204        -0.20054
H         42.66956         3.78296        -1.77573
H         42.66119         6.09508        -2.29861
H         42.71769         7.89308        -1.18840
H         42.76912        10.25041        -0.57698
H         42.83277        12.20501        -0.37846
H         42.86346        14.61785        -0.06963
H         42.83878        16.52455         0.32834
H         40.67780        20.25109         0.40362
H         42.80311        18.97752         0.57709
