         276
 CSIRO Nanostructure Databank - Neutral Graphene Oxide Data Set
C        -10.24458         0.58747         2.18134
C         -9.03677         1.35236         1.70320
C         -8.18912         0.58285         0.67787
C         -7.06274         1.32294         0.00609
C         -6.27777         0.70361        -1.14989
C         -5.04527         1.44393        -1.76210
C         -3.74810         0.60501        -1.69953
C         -2.44212         1.37720        -1.69806
C         -1.14381         0.61812        -1.26947
C         -0.18414         1.49270        -0.43387
C          0.97045         0.75465         0.28869
C          2.31538         1.48460         0.26829
C          3.46899         0.72378         0.88644
C          4.73182         1.46876         1.19123
C          6.01886         0.80778         0.84418
C          7.14645         1.70975         0.36652
C          8.47632         0.96764         0.23294
C          9.73287         1.64799         0.61553
C         10.94716         0.87222         0.57359
C         -9.27883         2.75680         1.20615
C         -8.15552         3.50088         0.81908
C         -6.84743         2.78575         0.45835
C         -6.06937         3.61019        -0.57029
C         -5.01019         2.94685        -1.40428
C         -3.80016         3.74855        -1.95042
C         -2.45732         2.88505        -1.83101
C         -1.14731         3.63047        -1.59408
C         -0.08507         2.95645        -0.74918
C          1.25860         3.71880        -0.71318
C          2.39030         2.96422         0.03555
C          3.44223         3.72500         0.81704
C          4.66663         2.97500         1.29738
C          5.99362         3.70119         1.45182
C          7.29107         2.89536         1.34022
C          8.50916         3.73489         0.98528
C          9.71816         3.03377         0.82191
C         -8.15520         4.89750         0.85384
C         -6.86122         5.65700         0.83984
C         -6.00268         5.14280        -0.39047
C         -4.58064         5.69688        -0.39008
C         -3.58679         5.10843        -1.29626
C         -2.39962         5.91611        -1.82539
C         -1.07491         5.12685        -1.64966
C          0.11437         5.85371        -1.09894
C          1.11647         5.21570        -0.44058
C          2.21678         5.99554         0.21609
C          3.41521         5.24093         0.83800
C          4.73702         5.90472         1.01767
C          6.01674         5.16865         1.20427
C          7.30401         5.88862         1.03902
C          8.47191         5.16201         0.97395
C         -6.95052         7.13926         0.68279
C         -5.67168         7.87575         0.88444
C         -4.49364         7.12860         0.06536
C         -3.47089         8.01862        -0.54328
C         -2.34097         7.37109        -1.27491
C         -1.01491         8.00786        -0.85179
C          0.14391         7.31554        -1.57383
C          1.54382         8.00566        -1.31395
C          2.29768         7.43973        -0.14041
C          3.11747         8.32118         0.52249
C          4.84370         7.24298         1.25015
C          6.02154         8.03364         0.72417
C          7.32600         7.39877         1.24716
C         -5.71422         9.34726         0.55839
C         -4.60041        10.06563         0.26628
C         -3.35144         9.43878        -0.10535
C         -2.21961        10.16258        -0.46132
C         -1.04336         9.50972        -0.92920
C          0.14890        10.19088        -1.19831
C          1.39047         9.52397        -1.16485
C          2.54257        10.26149        -0.77265
C          3.48958         9.62334         0.02945
C          4.73443        10.21733         0.51829
C          5.84014         9.52833         0.90618
C        -10.48381        -0.70580         1.93332
C         -9.83535        -1.47436         0.81955
C         -8.65920        -0.74794         0.14928
C         -7.56436        -1.52076        -0.52578
C         -6.34022        -0.80934        -1.12767
C         -5.02833        -1.56101        -1.05936
C         -3.76140        -0.89840        -1.53070
C         -2.41163        -1.66889        -1.38317
C         -1.39050        -0.77386        -0.64178
C         -0.17701        -1.48729        -0.14715
C          1.10566        -0.70231        -0.14686
C          2.41565        -1.42174        -0.02621
C          3.70192        -0.63905         0.22225
C          4.82915        -1.35355         0.95860
C          6.06965        -0.54497         0.76540
C          7.21356        -1.26332         0.18520
C          8.50769        -0.52123         0.09217
C          9.69319        -1.29619         0.67067
C         10.95887        -0.48964         0.55053
C         -9.69410        -2.96483         0.93206
C         -8.82259        -3.67894        -0.05707
C         -7.45666        -2.96404        -0.06255
C         -6.38490        -3.75030        -0.82966
C         -5.03401        -3.02837        -0.74925
C         -3.77313        -3.81705        -0.75598
C         -2.51544        -3.06917        -0.74756
C         -1.36253        -3.71348        -0.40228
C         -0.07637        -2.96852        -0.41590
C          1.23815        -3.67785        -0.25779
C          2.39125        -2.89428         0.30482
C          3.60988        -3.60453         0.82700
C          4.89477        -2.84024         1.12180
C          6.30657        -3.50644         1.14798
C          7.25968        -2.74745         0.21797
C          8.58104        -3.37843        -0.07843
C          9.73058        -2.68869         0.06278
C         -8.62063        -5.07225         0.46072
C         -7.40731        -5.75617         0.29171
C         -6.30791        -5.17246        -0.34174
C         -5.11050        -5.94904        -0.81645
C         -3.81004        -5.18313        -0.56771
C         -2.59375        -5.93263        -0.29598
C         -1.37952        -5.12152         0.14974
C         -0.07010        -5.87733        -0.05519
C          1.25195        -5.18148        -0.09711
C          2.47451        -5.89208         0.39366
C          3.68122        -5.10552         0.78325
C          5.01817        -5.80993         0.86829
C          6.40771        -5.10069         0.89314
C          7.22749        -5.50617        -0.34204
C          8.43501        -4.68824        -0.80795
C         -7.34038        -7.18354         0.78945
C         -6.11540        -7.94391         0.33933
C         -5.06224        -7.36347        -0.29738
C         -3.80441        -8.13315        -0.63718
C         -2.57308        -7.30486        -0.27527
C         -1.29748        -8.05521        -0.17434
C         -0.09498        -7.32218         0.33466
C          1.20513        -8.03633         0.50120
C          2.47745        -7.25903         0.52758
C          3.74541        -8.04542         0.55163
C          5.03818        -7.27701         0.50591
C          6.13253        -7.81034        -0.42442
C          7.08481        -6.73016        -0.88407
C         -6.10294        -9.36150         0.65913
C         -4.99618       -10.11799         0.45567
C         -3.76221        -9.52092        -0.01454
C         -2.59077       -10.20208         0.11404
C         -1.28531        -9.55368        -0.11569
C         -0.04024       -10.26499         0.41315
C          1.23950        -9.48366         0.17965
C          2.38149       -10.07190        -0.21742
C          3.73947        -9.41390        -0.18095
C          4.37581        -9.19965        -1.54743
C          5.50803        -8.49066        -1.63580
O         -6.32815         3.37011        -1.96127
O         -1.85627        -1.84466        -2.65379
O         -3.92755         6.09452         0.91176
O         -1.21782        -1.01639         0.76951
O          2.31509         5.73185         1.65491
O         -0.05568         7.32006        -2.93756
O          8.67650         0.30073        -1.08331
O          1.88165        -1.01422        -1.32872
O          0.78845        -3.25993        -1.56784
O          7.11275        -5.66769         1.94567
O          3.60409         3.32129         2.21757
O         -3.33841         8.12172        -2.01043
O         -8.73128        -1.05588        -1.26903
O         -3.82181        -0.32816        -2.84625
O          0.32823        -7.70241         1.67123
O          6.01816         4.57192         2.61858
O         -1.08056        -8.87447        -1.40139
O         -2.28542         2.03027        -2.98972
O          4.66974        -8.07203         1.67404
O          3.90852         0.83205         2.24114
O          6.75976        -2.08233        -0.98401
O         -0.72924         4.30899        -2.80901
O         -4.90244        -2.02104         0.33733
O          4.65576        -1.94008         2.25422
O          4.25200        -5.58541         2.05632
O          3.74004         7.95195         1.72339
O         -6.81962         0.44220         1.16781
O         -6.83703        -0.05610        -2.25780
O          2.53007        -3.16265         1.72676
O          0.64016        -5.76692        -1.31244
O          2.88863         1.99327        -0.97253
O         -0.74401         2.48966         0.48053
O          4.57111       -10.34570         0.52883
H          5.46206        -9.92776         0.64739
O         -6.13818         5.31435         2.05782
H         -6.72534         5.53091         2.81318
O         -5.21577         7.83345         2.25075
H         -4.94964         6.90049         2.43390
O         -1.48696        -4.99481         1.59908
H         -2.24726        -4.41195         1.80734
O         -2.62382         6.07011        -3.22925
H         -2.03678         5.43950        -3.70847
O         -5.30808         1.56976        -3.18352
H         -5.16099         0.68380        -3.59276
O         -3.74244        -8.29797        -2.09277
H         -2.82271        -8.60792        -2.29188
O          8.28086        -4.37642        -2.20238
H          7.68716        -3.59609        -2.27370
O          7.46215         7.63561         2.65238
H          6.82887         7.06078         3.13291
O          6.77195         2.26114        -0.90867
H          6.93237         1.56627        -1.58659
O          0.63396         0.67543         1.68603
H          0.09784         1.46672         1.92050
O         -0.83743         7.66704         0.55398
H         -1.55405         8.07613         1.08491
O        -10.90235        -1.64161        -0.18105
H        -10.44789        -1.92368        -1.02205
O         -7.12588        -2.92316         1.34326
H         -6.28008        -2.42145         1.44889
O         -8.26077         1.52861         2.92152
H         -7.30699         1.59072         2.65198
O          9.42188        -1.44050         2.09438
H          8.67437        -2.07497         2.22371
O         -6.61295         5.75760        -1.53007
H         -6.53371         5.12178        -2.28592
O          7.54637         2.31885         2.63715
H          7.26067         2.97364         3.31313
O         -0.20303       -10.46372         1.82348
H         -0.02488        -9.60023         2.26443
O          6.90711        -8.79870         0.30350
H          7.18784        -8.37419         1.14414
O         -6.77926        -3.77505        -2.22872
H         -6.28229        -4.52217        -2.65222
O          2.31918         7.72548        -2.49043
H          1.62417         7.49280        -3.18095
O         -9.42036        -3.66827        -1.38796
H         -8.67635        -3.75408        -2.03625
O         -6.00416         2.69330         1.62890
H         -5.89726         3.60721         2.00418
O          4.28220        -0.37229        -1.07623
H          3.54031        -0.21010        -1.70642
O         -0.41684         0.32446        -2.46613
H         -0.86971        -0.46886        -2.89226
O          6.87666        -3.27311         2.43967
H          7.05280        -4.19138         2.80611
O         -4.03016         3.94730        -3.34711
H         -4.35959         3.08453        -3.70609
O          6.05392         7.78216        -0.71195
H          5.25954         8.18459        -1.12517
O          1.68102         3.76726        -2.09797
H          1.96496         2.86650        -2.37494
O         -5.24155        -6.03381        -2.28226
H         -4.66268        -6.78988        -2.56999
O         -8.52958        -7.89497         0.42141
H         -8.55841        -7.96042        -0.55514
H         11.92047        -1.02483         0.53971
H         11.90179         1.42054         0.59860
H         10.67130         3.58567         0.84441
H          9.42957         5.69809         0.87724
H          8.21249         7.85194         0.73965
H          6.71544        10.10166         1.24910
H          4.77843        11.31873         0.53626
H          2.60509        11.34239        -0.97072
H          0.15010        11.29243        -1.14564
H         -2.21740        11.25742        -0.34773
H         -4.65650        11.16387         0.21128
H         -6.66106         9.87563         0.74514
H         -7.60117         7.49203        -0.13421
H         -9.10374         5.43688         0.99300
H        -10.18058         3.29788         1.53328
H        -10.84458         1.10049         2.94874
H        -11.33294        -1.20489         2.42534
H        -10.50873        -3.51273         1.43358
H         -9.47317        -5.61369         0.89660
H         -7.33023        -7.15912         1.91459
H         -7.02020        -9.79991         1.07559
H         -4.98519       -11.18285         0.73082
H         -2.58826       -11.20715         0.56259
H          0.03602       -11.27510        -0.06331
H          2.38196       -11.14822        -0.45039
H          3.95533        -9.69904        -2.43353
H          6.02553        -8.38453        -2.60201
H          7.77920        -7.02713        -1.68759
H          9.36138        -5.30901        -0.70602
H         10.69617        -3.13535        -0.22102
