         276
 CSIRO Nanostructure Databank - Neutral Graphene Oxide Data Set
C        -11.16552         0.79384         0.29149
C         -9.96307         1.59137         0.07610
C         -8.77171         0.86310        -0.51638
C         -7.44495         1.50104        -0.14522
C         -6.20561         0.78775        -0.58605
C         -4.96712         1.52348        -0.77345
C         -3.78489         0.86198        -1.01686
C         -2.45903         1.55663        -0.81415
C         -1.26033         0.91613        -1.51388
C          0.04694         1.58409        -1.25131
C          1.20644         0.67945        -0.92082
C          2.29812         1.21149        -0.05163
C          3.59629         0.46660         0.21702
C          4.78897         1.33294        -0.15476
C          6.09904         0.64162        -0.00166
C          7.34627         1.37829        -0.39864
C          8.63189         0.67757         0.00212
C          9.87010         1.46725        -0.34857
C         11.09236         0.67415        -0.18177
C         -9.91005         2.92978         0.35062
C         -8.67868         3.71088         0.30722
C         -7.39902         2.95048         0.19971
C         -6.17080         3.68071        -0.10890
C         -5.02228         3.04281        -0.84137
C         -3.66476         3.70617        -0.48315
C         -2.51580         3.08059        -0.87221
C         -1.20660         3.79753        -0.88145
C          0.06268         2.98411        -0.70106
C          1.16366         3.49072         0.16236
C          2.34543         2.63256         0.45273
C          3.61537         3.43880         0.52096
C          4.76544         2.82499        -0.22236
C          5.98782         3.63964        -0.70559
C          7.31368         2.85329        -0.65587
C          8.59996         3.68416        -0.69753
C          9.84344         2.81891        -0.49104
C         -8.65996         5.06769         0.44865
C         -7.35996         5.81147         0.63695
C         -6.22836         5.11023        -0.09256
C         -4.87472         5.89464         0.02443
C         -3.68060         5.04907         0.17880
C         -2.36684         6.15304        -0.74276
C         -1.13614         5.27247        -0.59978
C         -0.13232         5.67566         0.45751
C          0.98897         4.77778         0.90892
C          2.23312         5.47248         1.42180
C          3.59192         4.91070         0.97741
C          4.76810         5.75422         0.50569
C          5.96302         5.07775        -0.16668
C          7.27137         5.78316        -0.01458
C          8.47082         4.88258         0.28320
C         -7.36473         7.30053         0.36343
C         -6.20452         8.01243         0.39679
C         -4.87676         7.29758         0.58714
C         -3.74493         8.16311        -0.18911
C         -2.45479         7.41993        -0.09245
C         -1.44168         7.88449         0.88098
C         -0.18573         7.09180         0.97715
C          1.09583         7.75845         1.32006
C          2.10247         6.92187         1.69569
C          4.03248         7.98131         1.45159
C          4.94435         7.22245         0.78970
C          6.02006         7.96175        -0.01837
C          7.30160         7.13225         0.09339
C         -6.16560         9.46967         0.33308
C         -5.01396        10.19663         0.37917
C         -3.70674         9.55134         0.40161
C         -2.56278        10.15348         0.81911
C         -1.34676         9.37287         1.28025
C          0.04526         9.94307         1.00445
C          1.20415         9.22826         1.22879
C          2.50862         9.91375         1.13971
C          3.78570         9.39141         1.18191
C          5.03058        10.09889         0.86441
C          6.11729         9.40646         0.44966
C        -11.21945        -0.54964         0.13207
C        -10.04893        -1.35348        -0.39074
C         -8.75440        -0.59300        -0.01696
C         -7.51709        -1.32184        -0.50438
C         -6.22864        -0.58758        -0.56461
C         -5.02292        -1.37567        -0.88909
C         -3.75206        -0.61148        -1.19406
C         -2.42959        -1.34714        -1.21915
C         -1.24089        -0.58590        -1.74670
C          0.04810        -1.35830        -1.87494
C          1.39571        -0.63189        -1.71479
C          2.46088        -1.49176        -1.01453
C          3.77352        -0.80325        -0.72179
C          4.78521        -1.65328         0.10070
C          6.10644        -0.84293         0.16515
C          7.36742        -1.54867        -0.22572
C          8.60853        -0.77376        -0.51188
C          9.93889        -1.50592        -0.70697
C         11.10080        -0.67835        -0.19288
C         -9.95082        -2.77710         0.14188
C         -8.78497        -3.46235         0.12373
C         -7.54898        -2.80978        -0.40792
C         -6.26277        -3.52499        -0.06817
C         -4.95920        -2.82373        -0.47309
C         -3.72018        -3.59434        -0.81427
C         -2.43765        -2.85099        -1.18796
C         -1.28405        -3.65204        -1.76002
C          0.02279        -2.89747        -1.89036
C          1.33441        -3.67140        -1.77733
C          2.53471        -2.97568        -1.19421
C          3.83367        -3.70861        -0.97663
C          4.92195        -3.06221        -0.47317
C          6.09725        -3.78625         0.17556
C          7.44699        -2.93594         0.39651
C          8.74976        -3.64104         0.05707
C          9.87560        -2.95706        -0.24438
C         -8.63979        -4.84284         0.76864
C         -7.46910        -5.68287         0.24989
C         -6.33837        -4.99300        -0.44240
C         -5.11204        -5.75580        -0.87565
C         -3.81884        -5.03486        -1.32023
C         -2.54354        -5.79404        -1.01587
C         -1.30045        -5.22074        -1.68602
C         -0.02076        -5.72444        -1.01688
C          1.28853        -5.13390        -1.45529
C          2.57486        -5.91997        -1.22404
C          3.90458        -5.16448        -1.45042
C          5.16408        -5.94211        -0.93104
C          6.35101        -5.17221        -0.39126
C          7.52150        -5.86445         0.23173
C          8.78674        -5.07525         0.55347
C         -7.44655        -7.02284         0.36782
C         -6.34918        -7.89908        -0.22229
C         -5.03137        -7.16188        -0.41248
C         -3.81999        -7.74277        -0.18102
C         -2.56480        -7.05109        -0.49361
C         -1.31168        -7.93386        -0.38826
C         -0.01442        -7.04656        -0.34935
C          1.23876        -7.69653        -0.00963
C          2.50553        -7.32246        -0.63699
C          3.74612        -8.15028        -0.28541
C          5.09531        -7.42193        -0.55410
C          6.29041        -8.01155         0.14279
C          7.50108        -7.19821         0.40508
C         -6.17771        -9.13902         0.62030
C         -4.99170        -9.69950         0.86995
C         -3.70680        -9.19989         0.26011
C         -2.51987        -9.36304         1.19684
C         -1.35192        -8.77266         0.89261
C         -0.10378        -8.90888         1.74378
C          1.16936        -8.90687         0.87518
C          2.44946        -9.10655         1.64098
C          3.65118        -8.76683         1.11234
C          4.87335        -9.30311         1.69901
C          6.08606        -9.07706         1.15749
O          1.99903        -2.33380         0.05583
O          3.10515         2.65958         1.66754
O         -0.23558         4.79181         1.65930
O          6.01174        -8.30211        -1.28009
O         -5.58327         5.80176        -1.23267
O          7.70102        -1.19210        -1.60130
O         -0.69213        -0.88698        -3.04875
O          1.17705         0.46402         0.53208
O          3.18240         4.90291         2.36691
O         -7.32435         1.87159         1.27306
O         -0.55222         1.59928        -2.57866
O         -0.20857        -5.79997         0.44681
O         -7.67363        -2.18172        -1.71065
O          4.29872        -1.88885         1.37153
O         -3.99958        -3.24787         0.56631
O          7.57315        -2.68718         1.77037
O         -4.59727        -1.12443        -2.27296
O         -1.25808        -8.71619        -1.51937
O         -2.01750        -2.05487        -0.01952
O         -6.20126        -5.43570        -1.82028
O          4.39008         1.99210        -1.38593
O          6.26999        -5.51220        -1.79458
O          4.89054         5.70522        -0.95691
O          3.18992         7.40539         2.40771
O         -0.84462         4.77414        -1.94011
O         -0.77488        -3.27499        -3.05719
O          1.39749        -4.64482        -2.84069
O         -1.19714         7.06425         2.08363
O          1.20049         3.71348        -1.28582
O          2.47194        -7.08536        -2.09207
O          6.18809         0.02215         1.32947
O          7.33377         1.86903        -1.76353
O          3.67281        -9.29178        -1.17516
H          4.59046        -9.43857        -1.51896
O         -3.46791       -10.00651        -0.91506
H         -2.62143        -9.67899        -1.34196
O          1.05489        -9.99596        -0.08194
H          1.85672        -9.98441        -0.66036
O         -4.53468         7.24462         1.98392
H         -5.32852         6.90165         2.46012
O          1.89050        -0.30880        -3.02152
H          1.11004        -0.09640        -3.58934
O         -4.21871         8.33317        -1.52388
H         -4.06158         7.50318        -2.03036
O          9.92852        -5.77539         0.06769
H          9.83691        -5.88535        -0.90099
O          4.39802        -0.47577        -1.94598
H          3.72246        -0.26816        -2.63505
O         -8.70006        -0.57893         1.42369
H         -8.18252         0.20446         1.72227
O         10.18524        -1.58318        -2.14088
H          9.30717        -1.71215        -2.56918
O         -8.86543         0.90382        -1.94849
H         -9.54651         0.23585        -2.22237
O         -6.81439        -8.29132        -1.54154
H         -6.78754        -7.48082        -2.09960
O         -1.31879        -5.71869        -3.03270
H         -0.71307        -5.14988        -3.56747
O         -2.11703         1.30559         0.59387
H         -2.84768         1.62510         1.16645
O          5.57120        -4.03311         1.48804
H          6.13239        -3.45281         2.09854
O          5.67228         8.11402        -1.41614
H          5.45582         7.21561        -1.76467
O          8.71908         0.60078         1.44522
H          7.95557         0.07156         1.78849
O         -0.02652        -7.83012         2.68628
H         -0.19290        -6.98227         2.22001
O         -2.92522         6.07339        -2.02036
H         -2.37497         5.42603        -2.53388
O         -3.88114        -4.86308        -2.75449
H         -3.29165        -5.52503        -3.18521
O         -3.18763         4.95270         1.46080
H         -3.35219         5.80583         1.94386
O         -5.14449         3.34277        -2.26427
H         -5.32954         4.31105        -2.34101
O          5.79520         3.86547        -2.12020
H          5.83524         2.98429        -2.55727
O         -6.30406        -3.50890         1.38767
H         -5.38302        -3.64352         1.71395
O         -1.47050         9.47032         2.72791
H         -1.23603         8.58006         3.08952
O          3.59184         0.06369         1.56782
H          2.69641        -0.27787         1.79546
O          8.25533         4.35847         1.60019
H          8.99692         3.75741         1.82438
O        -10.20610        -1.40538        -1.83399
H         -9.43590        -1.92138        -2.18492
O         -9.85823        -5.57495         0.65953
H         -9.98834        -5.82440        -0.27822
O          4.03844        -5.06524        -2.87662
H          3.84669        -5.94687        -3.26501
O         -6.98507         5.67225         2.06499
H         -7.80990         5.68268         2.59623
O          8.70480         4.26209        -2.01167
H          8.50397         3.55278        -2.65993
H         12.04974        -1.20819        -0.01697
H         12.02656         1.21871         0.02973
H         10.80038         3.34625        -0.64226
H          9.41446         5.49394         0.25896
H          8.26161         7.64632         0.26257
H          7.04779         9.94754         0.21905
H          5.08034        11.18889         1.01064
H          2.42786        10.98796         0.90167
H          0.11917        11.03348         0.86615
H         -2.61609        11.19575         1.17461
H         -5.06518        11.29439         0.44052
H         -7.13428         9.99217         0.31468
H         -8.32842         7.82116         0.24900
H         -9.60462         5.62606         0.54103
H        -10.82295         3.44815         0.68575
H        -12.05841         1.32808         0.65409
H        -12.16123        -1.08099         0.33904
H        -10.85483        -3.26199         0.54352
H         -8.47295        -4.66822         1.86716
H         -8.30977        -7.53688         0.82045
H         -7.09431        -9.57945         1.04379
H         -4.93312       -10.61243         1.48339
H         -2.61136       -10.01299         2.08263
H         -0.14529        -9.85873         2.33195
H          2.41127        -9.67475         2.58345
H          4.76352        -9.98997         2.55145
H          6.98241        -9.54643         1.58956
H          8.38111        -7.71080         0.82339
H          8.88525        -5.02659         1.67231
H         10.81705        -3.52612        -0.32857
