         204
 CSIRO Nanostructure Databank - Neutral Graphene Oxide Data Set
C        -11.08491         0.73803        -0.32823
C         -9.87450         1.47861        -0.13903
C         -8.64874         0.74893         0.05898
C         -7.46698         1.44668         0.34332
C         -6.25889         0.67538         0.68571
C         -4.96673         1.44049         0.90419
C         -3.67099         0.70327         0.79895
C         -2.46141         1.48203         0.50861
C         -1.24355         0.77429         0.08758
C          0.03833         1.47550         0.20042
C          1.26364         0.74381         0.17216
C          2.50087         1.45953         0.22973
C          3.73137         0.74142         0.29789
C          4.98343         1.46646         0.24859
C          6.22215         0.74946         0.22579
C          7.45228         1.46323         0.08839
C          8.68704         0.75198         0.04807
C          9.92885         1.47564        -0.01917
C         11.14934         0.71684        -0.04144
C         -9.84005         2.88131        -0.13420
C         -8.64291         3.60355         0.09359
C         -7.42112         2.87580         0.39537
C         -6.21888         3.57697         0.65725
C         -4.95040         2.91530         0.75688
C         -3.72360         3.59021         0.73447
C         -2.47285         2.87351         0.57648
C         -1.22399         3.59673         0.40876
C          0.01494         2.88226         0.29331
C          1.26105         3.59276         0.19708
C          2.49166         2.88277         0.16942
C          3.73301         3.59655         0.06672
C          4.97549         2.87332         0.11266
C          6.21465         3.59284         0.01848
C          7.44693         2.88723         0.02258
C          8.69160         3.60711        -0.05950
C          9.91493         2.87344        -0.06456
C         -8.61548         5.01246        -0.03002
C         -7.44585         5.75933         0.20098
C         -6.25302         5.05247         0.71696
C         -4.94977         5.82199         0.84475
C         -3.63185         5.07224         1.04912
C         -2.43145         5.75492         0.43334
C         -1.22077         5.01915         0.32684
C          0.01481         5.71742         0.09909
C          1.25139         5.00989         0.07545
C          2.48046         5.71101        -0.13172
C          3.72310         4.99528        -0.11609
C          4.97187         5.71864        -0.22243
C          6.20762         5.01229        -0.11046
C          7.44698         5.73060        -0.17865
C          8.66861         5.01289        -0.13567
C         -7.38119         7.15153         0.02748
C         -6.15994         7.87108         0.07896
C         -4.92542         7.20802         0.34149
C         -3.69668         7.86889         0.13354
C         -2.44664         7.14336         0.19303
C         -1.22381         7.83878        -0.06696
C          0.01001         7.12787        -0.06553
C          1.24494         7.82269        -0.28424
C          2.45609         7.11290        -0.33732
C          3.70185         7.80913        -0.82080
C          4.97574         7.10833        -0.42906
C          6.19886         7.83244        -0.42238
C          7.41235         7.14721        -0.29029
C         -6.12505         9.26926        -0.24037
C         -4.93642         9.94351        -0.34740
C         -3.68353         9.26242        -0.20082
C         -2.45817         9.93649        -0.37014
C         -1.22689         9.25281        -0.29715
C          0.02111         9.93931        -0.44078
C          1.23342         9.26367        -0.42438
C          2.50299         9.96266        -0.47185
C          3.69772         9.29360        -0.54310
C          4.97518         9.97018        -0.52437
C          6.15241         9.28400        -0.50714
C        -11.09727        -0.64058        -0.33866
C         -9.89820        -1.40780        -0.23066
C         -8.64707        -0.69439        -0.05618
C         -7.44576        -1.40382        -0.04078
C         -6.20846        -0.75066         0.27408
C         -4.99862        -1.41751         0.16209
C         -3.71475        -0.78187         0.47585
C         -2.46237        -1.48889         0.14330
C         -1.24489        -0.71296        -0.11437
C          0.05920        -1.48538        -0.23458
C          1.28628        -0.67573         0.13842
C          2.49194        -1.37709         0.31845
C          3.71451        -0.66284         0.40193
C          4.98782        -1.40292         0.71309
C          6.24220        -0.67433         0.28221
C          7.44623        -1.36155         0.12755
C          8.68685        -0.66577         0.05356
C          9.92277        -1.40424         0.04162
C         11.14329        -0.65678        -0.00462
C         -9.91905        -2.82064        -0.22200
C         -8.73093        -3.58155        -0.24120
C         -7.45461        -2.83307        -0.53009
C         -6.21708        -3.60513        -0.17789
C         -4.97096        -2.83763        -0.25359
C         -3.67922        -3.60582        -0.13521
C         -2.43232        -2.87200         0.15163
C         -1.21224        -3.59382         0.27405
C          0.01766        -2.78049         0.57768
C          1.29507        -3.55207         0.38925
C          2.48340        -2.84443         0.34837
C          3.74679        -3.55161         0.27668
C          4.93154        -2.85244         0.31482
C          6.19461        -3.58444         0.07068
C          7.47067        -2.83367        -0.01539
C          8.74634        -3.57509         0.12429
C          9.92969        -2.82073         0.11089
C         -8.68340        -4.98521        -0.20429
C         -7.46138        -5.71454        -0.19649
C         -6.20020        -4.98546        -0.12531
C         -4.95242        -5.71963         0.05967
C         -3.74134        -5.03726         0.15357
C         -2.49002        -5.70559         0.50793
C         -1.19554        -4.98852         0.37270
C          0.03738        -5.70352         0.38536
C          1.25930        -4.98968         0.31001
C          2.49628        -5.67154         0.07494
C          3.72763        -5.00041         0.09128
C          4.96014        -5.73616         0.04824
C          6.21700        -5.02895         0.49989
C          7.50862        -5.73470         0.15452
C          8.70549        -4.99378         0.12177
C         -7.41840        -7.12426        -0.27031
C         -6.20643        -7.84347        -0.24501
C         -4.96138        -7.16451         0.00517
C         -3.75673        -7.88861         0.02949
C         -2.49630        -7.24716         0.41398
C         -1.22663        -7.91409         0.16813
C          0.04778        -7.21549         0.58109
C          1.24758        -7.87340        -0.04520
C          2.43534        -7.08539        -0.30926
C          3.77560        -7.84283        -0.49955
C          5.00086        -7.11287        -0.14756
C          6.24013        -7.84282        -0.05328
C          7.46151        -7.14231         0.04258
C         -6.16103        -9.25938        -0.47866
C         -4.97290        -9.94087        -0.55219
C         -3.71382        -9.27781        -0.32763
C         -2.48189        -9.93480        -0.44329
C         -1.22599        -9.26352        -0.24099
C          0.01591        -9.95423        -0.38647
C          1.25218        -9.25683        -0.32916
C          2.51329        -9.95587        -0.47239
C          3.73573        -9.30934        -0.40233
C          5.00733        -9.97568        -0.27394
C          6.18504        -9.27938        -0.14476
O         -3.34877         5.10507         2.48538
H         -4.22665         5.07369         2.93580
O          6.15727        -4.99303         1.96668
H          6.18831        -5.91897         2.28767
O         -2.54938        -6.53040         1.72094
O          0.21341        -1.85873        -1.62157
H         -0.14090        -1.11234        -2.15708
O          3.65461         7.69852        -2.29713
H          2.83649         8.15252        -2.59271
O         -5.76866         0.98348         2.03723
O         -0.07063        -2.38145         1.97780
H         -0.14770        -3.19262         2.52258
O          3.03962        -7.31872        -1.63567
O         -3.54165        -0.28196         1.87679
O          5.08963        -1.42412         2.19160
H          4.29274        -1.88258         2.53457
O         -5.81932         5.63235         2.01417
O         -4.19733        -3.18620        -1.46242
O          0.14278        -7.41024         2.05007
H         -0.73666        -7.13768         2.40854
O          6.74534        -3.29792        -1.25084
O         -7.40266        -2.70767        -2.00660
H         -7.20007        -3.59631        -2.36978
O         -1.43795         0.16454        -1.29524
H         12.09581        -1.20729        -0.01436
H         12.10511         1.25978        -0.08494
H         10.86615         3.42417        -0.12146
H          9.61826         5.56640        -0.18846
H          8.35860         7.70882        -0.29984
H          7.10647         9.83181        -0.49453
H          4.97951        11.07089        -0.50654
H          2.49319        11.06141        -0.39482
H          0.01067        11.03380        -0.55593
H         -2.46375        11.01643        -0.58112
H         -4.92852        11.01720        -0.58558
H         -7.07684         9.79592        -0.40233
H         -8.29643         7.69355        -0.25552
H         -9.53161         5.53665        -0.34181
H        -10.76781         3.44255        -0.32270
H        -12.02697         1.29312        -0.44854
H        -12.05167        -1.17350        -0.46376
H        -10.89145        -3.33724        -0.19369
H         -9.62818        -5.54990        -0.15822
H         -8.36105        -7.67893        -0.39605
H         -7.10826        -9.79242        -0.64937
H         -4.96781       -11.01644        -0.78197
H         -2.46716       -11.00087        -0.71473
H          0.00864       -11.02943        -0.61698
H          2.48605       -11.05615        -0.50436
H          5.02497       -11.07569        -0.28600
H          7.13183        -9.83516        -0.07223
H          8.40361        -7.70674        -0.04044
H          9.65920        -5.54107         0.04857
H         10.89964        -3.34029         0.15220
