         404
 CSIRO Nanostructure Databank - Neutral Graphene Oxide Data Set
C          1.20656         3.19386         0.45775
C          0.11879         4.00878         0.71278
C          1.20194         6.16540         1.47826
C          0.09888         5.36194         1.17397
C          1.18765         7.61986         1.47788
C         -0.02281         8.33874         1.59376
C          1.15513        10.46604         1.47711
C         -0.04318         9.72177         1.60693
C          1.14068        11.91178         1.37571
C         -0.00980        12.59604         1.01798
C          1.19510        14.70457         0.67953
C         -0.00143        13.97465         0.72594
C          1.21789        16.08221         0.12959
C         -0.00266        16.89917         0.04887
C          1.28292        18.99786        -0.15310
C          0.05437        18.23364        -0.19545
C          1.26142        20.40205        -0.37685
C          0.19791        21.09569        -1.01991
C          1.38895        23.25211        -0.91773
C          0.23499        22.45909        -1.23713
C          1.45675        24.70462        -1.17131
C          0.39637        25.37800        -1.82297
C          1.47493        27.53832        -1.47178
C          0.39147        26.75533        -1.93848
C          1.45512        28.98316        -1.55224
C          0.29006        29.68260        -1.96579
C          1.45324        31.81947        -1.86207
C          0.27580        31.05609        -2.07861
C          1.47471        33.25040        -2.08537
C          0.28586        34.00810        -2.25350
C          1.56930        36.06174        -2.51431
C          0.32872        35.37761        -2.43378
C          1.61996        37.50612        -2.65862
C          3.75882         3.29555         0.38522
C          2.52148         3.51053         0.94320
C          3.69388         6.19344         1.48996
C          2.48764         5.57182         1.70736
C          3.70492         7.63199         1.30963
C          2.41960         8.33882         1.36153
C          3.60379        10.52158         1.06173
C          2.37771         9.75449         1.35037
C          3.66783        11.96247         1.34712
C          2.38915        12.70162         1.69617
C          3.62487        14.81431         1.16141
C          2.40775        14.09796         1.09885
C          3.70579        16.17560         0.79862
C          2.54046        16.85318         0.20523
C          3.69165        19.02373         0.46860
C          2.49957        18.33005         0.20434
C          3.68625        20.48641         0.51832
C          2.38852        21.21730         0.07381
C          3.74501        23.35429        -0.16346
C          2.47249        22.61798        -0.33450
C          3.61314        24.82441         0.14383
C          2.55702        25.46510        -0.72690
C          3.78312        27.62438        -0.54584
C          2.60267        26.86972        -0.91531
C          3.77074        29.02129        -0.70921
C          2.61749        29.72273        -1.20506
C          3.85743        31.88953        -1.36810
C          2.63216        31.14722        -1.43592
C          3.92868        33.19477        -1.85375
C          2.72806        33.92645        -2.15335
C          4.04777        36.04504        -2.59529
C          2.76199        35.32761        -2.41701
C          4.06957        37.52770        -2.50324
C          2.78987        38.19976        -2.62196
C          6.17697         3.42412         0.54006
C          4.95513         3.99214         0.83565
C          6.24742         6.11193         1.48551
C          4.93245         5.35136         1.47477
C          6.20318         7.61948         1.51711
C          4.91374         8.31936         1.27359
C          6.15971        10.56256         1.20686
C          4.92848         9.77362         1.02362
C          6.15061        11.94474         1.32036
C          4.86657        12.62850         1.40354
C          6.13337        14.84300         1.83360
C          4.84210        14.09557         1.64832
C          6.04956        16.31583         1.57779
C          4.89927        16.92895         1.01206
C          6.11459        19.10417         0.98557
C          4.91689        18.34997         0.79056
C          6.14007        20.53185         0.78081
C          4.96467        21.19867         0.48218
C          6.15660        23.41100         0.73266
C          4.99585        22.64279         0.22972
C          6.07844        24.84416         0.64361
C          4.94751        25.53480         0.18049
C          6.19180        27.67421         0.11016
C          4.97074        26.94701        -0.05403
C          6.22439        29.08898        -0.06018
C          4.95428        29.78790        -0.29494
C          6.34787        31.86537        -0.80811
C          5.02696        31.27522        -0.70276
C          6.47390        33.17215        -1.46931
C          5.25577        33.82531        -2.04755
C          6.58081        36.05166        -2.03913
C          5.32869        35.28908        -2.38917
C          6.53938        37.57559        -2.08435
C          5.24089        38.21985        -2.35019
C          8.62155         3.42854         0.19135
C          7.44606         4.10219         0.64525
C          8.73747         6.21500         0.95304
C          7.47493         5.46063         0.99593
C          8.73239         7.67746         0.89389
C          7.48017         8.37629         1.21776
C          8.68231        10.57431         0.82872
C          7.40054         9.82641         0.89355
C          8.71617        11.95303         1.45108
C          7.39466        12.71422         1.40828
C          8.71360        14.77510         1.51479
C          7.42633        14.07924         1.64589
C          8.90375        16.11274         1.87727
C          7.09652        17.15904         1.94749
C          8.59029        19.13127         1.43723
C          7.29003        18.47182         1.46401
C          8.56679        20.56514         1.28748
C          7.35623        21.27038         1.05234
C          8.50336        23.39700         1.74905
C          7.31162        22.70773         1.09703
C          8.50532        24.91360         1.52252
C          7.26864        25.62714         1.02848
C          8.60196        27.69739         0.66821
C          7.38735        27.01545         0.54854
C          8.65300        29.11309         0.36687
C          7.42760        29.81028         0.06935
C          8.74282        31.88940        -0.27100
C          7.49151        31.21182        -0.30232
C          8.91724        33.27025        -0.87920
C          7.64200        33.98494        -1.14985
C          8.78536        36.21810        -0.82351
C          7.48698        35.45845        -0.96529
C          8.76779        37.65464        -0.95062
C          7.59024        38.30766        -1.38648
C         10.97952         3.46547        -0.53816
C          9.84294         4.08834        -0.00202
C         11.07056         6.31326        -0.16939
C          9.98708         5.49894         0.42357
C         11.11700         7.72956         0.13873
C          9.93206         8.40293         0.67292
C         11.18489        10.56843         0.84150
C          9.93907         9.81183         0.81280
C         11.12807        12.05239         0.69881
C          9.92014        12.71437         0.94459
C         11.04097        14.88795         0.66111
C          9.87250        14.12752         0.97127
C         11.04558        16.30596         0.83602
C          9.92611        16.96696         1.37201
C         11.05330        19.16718         1.11060
C          9.83247        18.42834         1.39038
C         11.04006        20.59666         1.13628
C          9.80882        21.30038         1.29503
C         11.02845        23.41222         1.39798
C          9.80853        22.70874         1.39386
C         11.01054        24.87122         1.66785
C          9.78041        25.63245         1.38314
C         11.08748        27.68342         0.99692
C          9.81704        26.98767         1.05677
C         11.16451        29.05084         0.36564
C          9.86832        29.80955         0.38274
C         11.14297        31.94100         0.32888
C          9.91345        31.22084         0.15890
C         11.09633        33.40593         0.43519
C          9.85059        34.12491        -0.05693
C         11.10958        36.29283        -0.01210
C          9.92559        35.57501        -0.34058
C         11.12222        37.72128        -0.18379
C          9.93980        38.37518        -0.60608
C         13.29943         3.55383        -1.29634
C         12.14256         4.21020        -0.90127
C         13.14557         6.46945        -1.51530
C         12.09229         5.67332        -0.85366
C         13.25323         7.94529        -1.12340
C         12.26261         8.46433        -0.16378
C         13.63307        10.61693        -0.03689
C         12.44666         9.80916         0.39035
C         13.52997        12.11578        -0.08678
C         12.25697        12.80867         0.24439
C         13.24615        15.05440        -0.53432
C         12.20107        14.20278         0.17881
C         13.51586        16.35531         0.19135
C         12.31507        17.04694         0.75214
C         13.46030        19.23828         0.49093
C         12.28072        18.51328         0.82606
C         13.44015        20.64282         0.57185
C         12.25248        21.32765         0.94913
C         13.51126        23.47917         1.07535
C         12.25167        22.75306         1.12948
C         13.55782        24.87397         1.35833
C         12.31667        25.61722         1.65099
C         13.54428        27.74139         1.23372
C         12.28155        27.04404         1.27578
C         13.55426        29.18672         1.11911
C         12.36987        29.85172         0.79858
C         13.55851        32.01093         0.86661
C         12.36396        31.27516         0.65517
C         13.62294        33.45881         0.45044
C         12.31401        34.19471         0.51285
C         13.53130        36.34525         0.55181
C         12.30402        35.59374         0.38465
C         13.52168        37.77660         0.41043
C         12.31877        38.44013         0.06348
C         15.76938         3.63632        -1.92052
C         14.44309         4.26271        -1.88320
C         15.62656         6.52367        -2.30310
C         14.35146         5.75040        -2.06803
C         15.67149         8.03479        -2.00224
C         14.53957         8.67440        -1.30305
C         15.88409        10.73516        -1.11906
C         14.68810         9.96328        -0.84492
C         15.88308        12.14854        -1.01826
C         14.58495        12.83890        -0.86036
C         15.81749        15.07019        -0.97374
C         14.53186        14.33438        -0.93352
C         15.83735        16.47996        -0.72472
C         14.67494        17.16811        -0.23817
C         15.86652        19.29665        -0.24919
C         14.66549        18.54566         0.00584
C         15.89328        20.70974        -0.04165
C         14.58915        21.45648         0.03671
C         15.92685        23.52301         0.59891
C         14.69718        22.82803         0.65887
C         15.98795        24.91746         0.97603
C         14.75889        25.59698         1.30681
C         15.98901        27.76603         1.62436
C         14.73423        27.03536         1.39916
C         16.00892        29.24048         1.51073
C         14.77989        29.91727         1.29058
C         16.00470        32.04856         1.37596
C         14.77224        31.34161         1.19356
C         15.96459        33.51605         1.52042
C         14.69135        34.23800         1.17614
C         15.93205        36.39409         1.13170
C         14.72787        35.69150         0.92411
C         15.92618        37.82703         0.97466
C         14.72363        38.48779         0.63549
C         18.19297         3.68402        -2.25898
C         16.92400         4.36684        -2.15382
C         18.11991         6.52421        -2.37795
C         16.90659         5.80662        -2.29576
C         18.16174         7.96356        -2.23215
C         16.99195         8.67659        -1.89466
C         18.26342        10.79286        -1.74930
C         17.05119        10.05909        -1.56662
C         18.26249        12.21407        -1.58853
C         17.03961        12.90969        -1.29232
C         18.25692        15.08166        -1.33785
C         17.01593        14.35857        -1.22071
C         18.27207        16.50664        -1.21798
C         17.04900        17.21577        -0.90193
C         18.23531        19.41700        -0.98535
C         17.03534        18.61774        -0.68958
C         18.31829        20.79927        -0.49228
C         17.10120        21.43956        -0.09663
C         18.35495        23.55534         0.08279
C         17.12863        22.84900         0.19670
C         18.34594        25.02197         0.21949
C         17.17685        25.63887         0.84695
C         18.53056        27.78554         1.18938
C         17.28889        27.00550         1.35858
C         18.50277        29.18918         1.66376
C         17.22375        29.94171         1.58433
C         18.47544        32.13742         1.57795
C         17.22795        31.37263         1.52145
C         18.45138        33.57724         1.57331
C         17.21325        34.28586         1.52315
C         18.38863        36.44308         1.47490
C         17.16951        35.69668         1.40030
C         18.35365        37.87703         1.39137
C         17.13226        38.54374         1.15202
C         19.35054         4.37332        -2.46508
C         20.56683         6.52005        -2.58703
C         19.35838         5.80925        -2.49302
C         20.59512         7.90984        -2.50405
C         19.41890         8.65547        -2.28987
C         20.63173        10.85070        -2.29679
C         19.45042        10.09638        -2.11949
C         20.64113        12.22501        -2.11585
C         19.47300        12.93703        -1.76250
C         20.68327        15.09962        -1.63733
C         19.47663        14.37810        -1.58001
C         20.69853        16.48085        -1.50141
C         19.50929        17.19953        -1.31808
C         20.77812        19.40893        -0.98997
C         19.54317        18.67960        -1.29565
C         20.76535        20.73758        -0.70703
C         19.54578        21.48324        -0.49369
C         20.80965        23.61905        -0.03918
C         19.57259        22.89405        -0.18792
C         20.87223        24.95163         0.24973
C         19.67672        25.79182         0.23882
C         20.89954        27.98330         0.62596
C         19.69807        27.19098         0.76763
C         20.94099        29.30332         0.94690
C         19.79911        29.98654         1.57375
C         20.91309        32.22564         1.58764
C         19.71990        31.47506         1.56193
C         20.89272        33.61090         1.62839
C         19.67250        34.31897         1.61475
C         20.81134        36.54547         1.74872
C         19.63655        35.77212         1.62441
C         20.76716        37.94393         1.71116
C         19.56380        38.60927         1.52384
O          5.31916        14.44019         3.00240
O         15.44041         7.51563        -3.35665
O          2.08223        16.22876        -1.04596
O         19.33743        29.42046         2.84531
O          8.04637        16.64789         2.83724
O         11.67313        25.26924         2.92496
O         14.95581        33.90134         2.55930
O          5.71713         5.46782         2.70172
O          6.13091        33.05231        -2.95820
O         18.73535        19.27108        -2.36380
O         16.75740        27.19300         2.72459
O          9.79863         5.68991         1.84789
O          4.70441        23.00544        -1.21374
O          2.50903         4.24648         2.14649
O          4.84510        35.54238        -3.73391
O          2.74039        21.03718         1.49587
O          4.68641        30.85008         0.67285
O         18.86319        25.71092        -0.98182
O         14.16290        11.44017         1.05193
O          9.96614        33.81774         1.33624
O          4.21434        10.14655        -0.21955
O         12.14704         9.99726         1.79500
O          7.58829        25.55746         2.48274
O         14.04195         4.89140        -3.20443
O          6.99839         8.17727         2.61394
O          7.91702        10.30658        -0.40288
O         14.21449        13.49787        -2.11892
O         12.63750         7.51770        -2.39278
O          7.17176        36.70013        -3.16078
O         13.33300        16.36525         1.63247
O          3.09583        24.88341         1.51164
H          3.00068        25.82701         1.76021
O          6.72367        35.68782         0.28910
H          7.25550        35.32737         1.03178
O          8.96383        11.67047         2.86283
H          9.02800        12.52393         3.34129
O          9.62609        33.06400        -2.16247
H          8.95561        32.79080        -2.82614
O         11.39475        28.78480        -1.08030
H         12.26371        28.33526        -1.15767
O         14.05626        33.46280        -0.96125
H         13.34634        33.04620        -1.49504
O         14.22433        21.72060        -1.38066
H         14.99985        22.14560        -1.80644
O          8.34348        23.18181         3.17911
H          7.80031        23.93229         3.51626
O         12.60652        15.47840        -1.77219
H         12.76656        14.76474        -2.43310
O          2.38998        12.86326         3.15592
H          3.18377        13.38911         3.39977
H          1.06113         2.29760        -0.16387
H         -0.85498         3.64131         0.35099
H         -0.87738         5.86179         1.07545
H         -0.96708         7.78919         1.70955
H         -1.00261        10.24125         1.73193
H         -0.94853        12.04674         0.85814
H         -0.94173        14.44272         0.40572
H         -0.98254        16.41640         0.17086
H         -0.88917        18.78834        -0.29849
H         -0.68721        20.53423        -1.35086
H         -0.63201        22.93312        -1.71642
H         -0.45870        24.81178        -2.21517
H         -0.47131        27.23706        -2.41654
H         -0.63022        29.12879        -2.19253
H         -0.64958        31.55245        -2.39970
H         -0.69224        33.51156        -2.19710
H         -0.60578        35.95040        -2.51937
H          0.66577        38.04542        -2.75098
H          3.86043         2.60538        -0.46598
H          2.78427        39.29824        -2.67971
H          6.19008         2.41082         0.11035
H          5.20249        39.31865        -2.28009
H          8.53628         2.37404        -0.10900
H          7.51357        39.40239        -1.30431
H         10.97288         2.37968        -0.71254
H          9.94798        39.46880        -0.72493
H         13.33962         2.45543        -1.24578
H         12.32050        39.53485        -0.04401
H         15.83678         2.54765        -1.77941
H         14.72771        39.58286         0.52897
H         18.19993         2.58685        -2.18882
H         17.12657        39.64039         1.06340
H         20.30738         3.84036        -2.56384
H         21.50793         5.96325        -2.70251
H         21.56673         8.41803        -2.56371
H         21.56640        10.35556        -2.59164
H         21.58725        12.75877        -2.27369
H         21.63617        14.58138        -1.80159
H         21.65777        17.00934        -1.57737
H         21.73564        18.86977        -0.98024
H         21.72796        21.23965        -0.54158
H         21.75351        23.05745        -0.05909
H         21.83525        25.39980         0.53440
H         21.77894        27.51582         0.16048
H         21.83082        29.89131         0.67972
H         21.88141        31.70721         1.60147
H         21.84856        34.14959         1.66169
H         21.78535        36.05685         1.88315
H         21.69933        38.51604         1.81763
H         19.53593        39.70701         1.47277
