         470
 CSIRO Nanostructure Databank - Neutral Graphene Oxide Data Set
C         38.16973        50.79901        -2.35946
C         37.07193        51.50673        -2.84774
C         38.17640        53.58465        -2.29971
C         37.07145        52.90142        -2.81484
C         40.36822        49.28859        -1.05708
C         40.45121        50.71978        -1.32075
C         39.28815        51.46996        -1.83198
C         40.48622        53.60941        -1.19862
C         39.29177        52.88953        -1.81884
C         40.65383        55.05668        -1.58242
C         42.76759        49.16976        -0.44099
C         41.43822        48.56113        -0.66448
C         42.85946        50.65987        -0.67000
C         41.64106        51.36980        -1.11237
C         43.07160        53.47486        -1.63428
C         41.73973        52.80440        -1.48733
C         43.12181        54.94988        -1.58880
C         41.87028        55.65789        -1.67252
C         45.09459        46.14223        -0.85546
C         43.96832        46.87231        -0.68599
C         45.34313        48.96365        -0.80902
C         44.04031        48.32893        -0.48691
C         45.38169        50.40122        -1.16936
C         44.19705        51.28676        -0.95908
C         45.53494        53.31882        -1.46337
C         44.32124        52.70065        -1.42302
C         45.60620        54.79313        -1.51427
C         44.36604        55.59097        -1.47928
C         45.62240        57.53274        -0.65619
C         44.49771        56.99150        -1.26614
C         47.53219        44.52837        -0.86243
C         47.56104        45.94724        -0.91023
C         46.40963        46.74486        -0.90110
C         47.81722        48.83402        -1.04045
C         46.49012        48.19724        -0.96378
C         47.92003        50.28533        -1.05261
C         46.71340        51.06845        -1.38162
C         47.95650        53.16529        -0.68362
C         46.86507        52.57989        -1.55773
C         47.94428        54.52710        -0.34511
C         46.87537        55.41874        -0.84875
C         47.65251        57.16853         0.75717
C         46.71757        56.74024        -0.25092
C         47.37833        58.33286         1.51625
C         49.96552        44.37362        -0.56470
C         48.69443        43.77930        -0.77837
C         50.05691        45.80682        -0.51539
C         48.91565        46.57767        -1.13748
C         50.28337        48.67192        -0.75086
C         48.94921        48.05689        -0.86774
C         50.34891        50.18297        -0.70162
C         49.09404        50.95074        -0.73656
C         50.17835        52.95424         0.32129
C         49.08698        52.36986        -0.38007
C         50.09177        54.27268         0.81502
C         48.97445        55.07531         0.46911
C         49.82331        56.92256         1.91755
C         48.83713        56.40925         1.02219
C         49.44053        58.02432         2.70891
C         48.23847        58.72460         2.52558
C         52.34661        41.45600        -0.55602
C         51.18352        42.18290        -0.69253
C         52.34944        44.18780         0.05281
C         51.15366        43.57318        -0.39960
C         52.27589        45.58893         0.50521
C         51.18647        46.44237        -0.01697
C         52.47981        48.52379         0.42095
C         51.36918        47.88571        -0.08735
C         52.80856        49.96665         0.04079
C         51.58767        50.85320        -0.19785
C         52.59283        52.76322         1.15977
C         51.47635        52.23395         0.36714
C         52.42399        54.02403         1.90760
C         51.14497        54.81626         1.72520
C         52.30478        56.93300         2.42113
C         51.13593        56.27173         2.06228
C         52.39752        58.37642         2.65591
C         51.33432        59.11829         3.20346
C         52.44374        61.20299         2.80372
C         51.33147        60.51471         3.27076
C         54.82884        39.90967        -0.20091
C         54.79248        41.31216        -0.07719
C         53.56468        42.06598        -0.15213
C         54.80041        44.13328         0.51002
C         53.55582        43.45921         0.16043
C         54.79904        45.49201         0.87219
C         53.54779        46.24834         1.00812
C         54.87720        48.44548         1.35098
C         53.57280        47.75509         1.07896
C         55.00774        49.91420         1.20219
C         53.86777        50.65307         0.89582
C         54.96173        52.70336         1.77744
C         53.79167        52.05498         1.23540
C         54.97901        54.06539         2.10694
C         53.67057        54.73151         2.35650
C         54.88427        56.98124         2.38458
C         53.61604        56.22822         2.53923
C         54.87040        58.35520         2.26254
C         53.60873        59.07916         2.39212
C         54.81792        61.22915         2.09550
C         53.59485        60.49785         2.39973
C         54.81637        62.58547         1.80327
C         57.24887        39.84874         0.12470
C         56.02146        39.19719        -0.06455
C         57.28971        41.27781         0.10182
C         56.03123        42.01644         0.12103
C         57.37098        44.06027         0.60698
C         56.02419        43.39022         0.38849
C         57.26651        45.56238         0.46077
C         56.08264        46.19281         1.11592
C         57.42504        48.41873         1.14936
C         56.15101        47.66513         1.37243
C         57.46870        49.82397         1.55080
C         56.23507        50.51156         1.61864
C         57.47025        52.67636         2.21898
C         56.17360        51.92391         2.01147
C         57.44740        54.13826         2.10979
C         56.19968        54.78592         2.25617
C         57.40694        56.98448         2.14709
C         56.18791        56.24603         2.66161
C         57.38349        58.41513         2.12873
C         56.11701        59.11806         2.22261
C         57.28871        61.32124         2.24947
C         56.06228        60.51173         2.15591
C         57.25068        62.73222         1.82607
C         56.02871        63.29948         1.57502
C         59.80078        37.00610         0.24909
C         58.59980        37.64354         0.23624
C         59.83281        39.87488         0.23415
C         58.49737        39.10038         0.38134
C         59.76470        41.31263        -0.12308
C         58.51279        41.97356        -0.04840
C         59.73948        44.18521        -0.31822
C         58.41313        43.45277        -0.35282
C         59.72545        45.67390        -0.25683
C         58.48331        46.37845         0.21150
C         59.87220        48.42310         0.94314
C         58.55188        47.78123         0.71055
C         59.94324        49.87224         1.29378
C         58.72968        50.49848         1.68218
C         60.03614        52.70907         2.06838
C         58.76006        51.92268         2.11184
C         59.95139        54.18187         1.78033
C         58.66372        54.85738         1.88159
C         59.73987        57.03955         1.30691
C         58.57700        56.28460         1.80553
C         59.80329        58.48498         1.57075
C         58.59948        59.13628         1.97375
C         59.84009        61.36327         1.91630
C         58.61757        60.58473         2.20649
C         59.81321        62.73087         1.79029
C         58.52600        63.46616         1.46902
C         59.72746        65.57233         1.95873
C         58.56358        64.89157         1.95852
C         62.38910        35.57609         0.19147
C         62.32643        36.98998         0.01124
C         61.06768        37.70564         0.14779
C         62.24990        39.78711        -0.47649
C         61.04578        39.09120        -0.00679
C         62.19499        41.28379        -0.68592
C         60.94327        42.02549        -0.40358
C         62.20871        44.16869        -0.43839
C         60.92615        43.47934        -0.43765
C         62.25874        45.65363        -0.52558
C         61.00889        46.43215        -0.26054
C         62.41639        48.47055         0.53680
C         61.11564        47.70830         0.53808
C         62.39112        49.94791         0.75047
C         61.18165        50.56468         1.20742
C         62.45273        52.77142         1.23795
C         61.35227        51.93968         1.84460
C         62.48362        54.22157         1.64169
C         61.11367        54.86983         1.47570
C         62.31759        57.08862         1.10752
C         61.07178        56.29672         1.12075
C         62.27242        58.49395         1.18656
C         61.03276        59.16320         1.47998
C         62.39268        61.32843         1.78136
C         61.09614        60.58022         1.89587
C         62.32652        62.82726         1.83582
C         61.02882        63.51288         1.73817
C         62.18658        65.67568         1.35043
C         60.99814        64.90931         1.68765
C         62.12027        67.08730         1.13800
C         64.84644        35.51335         0.08609
C         63.57777        34.88114         0.25858
C         64.81062        36.90865        -0.51587
C         63.54807        37.70286        -0.18282
C         64.75329        39.88725        -0.23969
C         63.55274        39.09938        -0.32268
C         64.73159        41.27088        -0.20336
C         63.52419        42.02951        -0.76420
C         64.60641        44.12867         0.02146
C         63.38172        43.46169        -0.32291
C         64.75738        45.52522        -0.21356
C         63.56784        46.36692        -0.52451
C         64.77633        48.70895        -0.36744
C         63.63396        47.81252        -0.04948
C         64.82236        50.03667         0.16678
C         63.59859        50.67300         0.63153
C         64.83041        52.86698         0.63490
C         63.61755        52.12179         0.83487
C         64.82704        54.29060         0.65667
C         63.61368        54.99058         0.98807
C         64.72208        57.15709         0.53046
C         63.55709        56.39012         0.91113
C         64.64932        58.54746         0.48303
C         63.48885        59.26392         0.94705
C         64.69110        61.46685         0.79373
C         63.53813        60.66092         1.12935
C         64.71266        62.84147         0.94717
C         63.55611        63.60755         1.45172
C         64.52059        65.73536         0.52636
C         63.41126        65.02784         1.07840
C         64.41708        67.15058         0.29706
C         63.19602        67.79666         0.66105
C         67.22716        32.77862         0.98836
C         66.11263        33.40079         0.53843
C         67.33507        35.53639         0.30291
C         66.03892        34.82740         0.29374
C         67.36592        37.01505         0.05032
C         66.09997        37.73123        -0.32667
C         67.30778        39.97543         0.23686
C         66.07625        39.21645        -0.17549
C         67.22726        41.41228         0.27890
C         65.93716        41.99791         0.17022
C         67.55694        44.49198         0.36964
C         65.69384        43.37111         0.47283
C         67.31200        45.72732        -0.33027
C         65.98591        46.06056        -0.63531
C         67.22459        48.72101        -0.80322
C         65.92799        48.19710        -0.96134
C         67.26675        50.09673        -0.36671
C         66.05050        50.72212         0.10700
C         67.28797        52.85877         0.00718
C         66.13967        52.11814         0.67053
C         67.22619        54.34732        -0.11687
C         65.99964        55.03841         0.33095
C         67.13787        57.16994        -0.08452
C         65.97755        56.46225         0.26169
C         67.03816        58.58900        -0.45469
C         65.76674        59.31065        -0.11248
C         67.12668        61.48852        -0.03881
C         65.82577        60.80233         0.10055
C         67.17867        62.93358         0.22695
C         65.92096        63.64885         0.67734
C         66.84428        65.75125        -0.29402
C         65.76855        65.06993         0.31057
C         66.65448        67.11718        -0.70061
C         65.52137        67.85959        -0.26024
C         66.66638        70.10481        -0.18950
C         65.56135        69.32023        -0.27290
C         69.76416        31.39892         1.71287
C         69.73883        32.76292         1.39509
C         68.42812        33.52535         1.51096
C         69.73398        35.57771         0.84851
C         68.51254        34.90731         0.92242
C         69.75574        37.06456         0.79886
C         68.41671        37.79412         0.82336
C         69.80233        39.95793         0.49688
C         68.48195        39.27260         0.47357
C         69.82654        41.47275         0.41990
C         68.50497        42.24332         0.65720
C         69.65289        44.26242        -0.74541
C         68.55077        43.63383         0.01566
C         69.68060        45.75984        -0.83222
C         68.44585        46.47710        -0.77828
C         69.66548        48.58745        -1.01276
C         68.41475        47.91384        -0.93173
C         69.63064        50.06526        -1.09192
C         68.47477        50.77871        -0.52996
C         69.75991        52.96488        -0.59943
C         68.64296        52.16734         0.03740
C         69.69075        54.41198        -0.56607
C         68.50030        55.07255        -0.26630
C         69.64193        57.30326        -0.62828
C         68.50496        56.54365         0.03828
C         69.60412        58.68039        -0.69490
C         68.29771        59.38623        -0.69910
C         69.45763        61.62925        -0.77574
C         68.26650        60.85864        -0.50586
C         69.42983        63.02099        -0.78388
C         68.23948        63.71044        -0.42258
C         69.19440        65.84907        -1.14975
C         68.08856        65.09277        -0.61344
C         68.99206        67.21157        -1.52154
C         67.64980        67.70558        -1.52860
C         69.06235        70.28995        -1.07769
C         68.10680        69.67195        -0.06554
C         69.04367        71.68778        -1.20395
C         72.14623        31.30736         1.32191
C         70.95263        30.66806         1.67111
C         72.14818        32.66734         1.03439
C         70.95501        33.42794         1.07115
C         72.13732        35.54453         0.35804
C         70.96874        34.86489         0.83493
C         72.15834        36.87687         0.04048
C         71.03925        37.75470         0.40076
C         72.08824        39.88091        -0.40771
C         70.99679        39.19802         0.04551
C         72.05419        41.29995        -0.62879
C         70.98870        42.08673        -0.28702
C         72.17528        44.32576        -0.81928
C         70.96179        43.50095        -0.78493
C         72.12903        45.67800        -0.98351
C         70.89879        46.44150        -1.01241
C         72.11661        48.66023        -1.02752
C         70.89161        47.89127        -1.06504
C         72.15229        50.02338        -1.01962
C         70.94379        50.83276        -1.19616
C         72.08550        53.07722        -1.30796
C         70.92483        52.31324        -0.97059
C         72.06932        54.44662        -1.25289
C         70.88267        55.17236        -0.91626
C         71.91522        57.33500        -1.60259
C         70.83444        56.58180        -1.00338
C         71.91977        58.69007        -1.63857
C         70.82649        59.45198        -1.01595
C         71.64926        61.74012        -1.99251
C         70.73961        60.95124        -1.11463
C         71.59192        63.08028        -2.00115
C         70.71463        63.80183        -0.99573
C         71.54011        66.08717        -1.69578
C         70.47614        65.26564        -1.31982
C         71.36910        67.46968        -1.88322
C         70.10477        68.06062        -1.80332
C         70.81092        70.22836        -2.77133
C         69.96901        69.53662        -1.87900
C         70.77874        71.61787        -2.87815
C         69.89580        72.35346        -2.08648
O         56.71162        52.17450         3.36283
O         50.65169        49.44717        -1.94099
O         51.94077        51.98252        -1.06365
O         60.18186        46.43804        -1.45927
O         65.81817        47.00394        -1.66390
O         67.79979        36.14356        -1.00699
O         63.21943        63.36957         2.86607
O         57.45070        46.15270        -0.86058
O         59.22886        39.60758         1.54298
O         65.34759        60.21828        -1.17843
O         62.90492        46.11293        -1.78836
O         46.67445        55.36723        -2.29699
O         70.64290        37.59010         1.83613
O         61.98175        60.74530         3.06720
O         52.56177        45.70191         1.94705
O         60.19435        56.61529        -0.01948
O         71.35076        60.34818         0.08650
O         66.34751        38.57084        -1.50442
O         51.35358        53.95262         2.90845
O         43.41984        48.75306         0.79565
O         70.17653        40.77835         1.67235
O         68.50110        68.93843         0.82265
O         43.63887        51.30952         0.39801
O         50.24920        58.43180         3.77592
O         66.99357        63.34639         1.63996
O         66.95235        53.41368        -1.27547
O         42.29414        52.98104        -2.82498
O         53.62783        55.29688         3.70382
O         45.95326        50.54073        -2.52912
O         58.03547        61.03128         3.48634
O         56.28158        46.69697         2.47909
O         66.58668        44.07849         1.28524
O         60.62419        47.55037         1.90755
O         67.48137        58.89084        -1.83404
O         70.09481        43.59898        -1.97718
O         59.49699        52.26314         3.35793
O         63.41205        47.82758         1.41186
O         53.92945        48.18441         2.44257
O         62.04663        40.37566        -1.84354
O         70.14775        50.54448        -2.39654
O         69.06993        51.98992         1.42202
H         68.26259        51.80413         1.96532
O         57.90478        43.57285        -1.70764
H         57.83972        44.53822        -1.90762
O         57.82142        43.80295         1.95680
H         57.18729        44.21271         2.58355
O         40.30404        53.56531         0.24807
H         39.45233        53.99980         0.46170
O         67.96004        37.73779         2.20964
H         68.71742        38.03660         2.76254
O         68.82574        56.64122         1.48777
H         69.70760        56.23148         1.62246
O         61.88844        51.65373         3.19252
H         61.09569        51.45859         3.75489
O         71.43481        63.78120         0.27033
H         71.54548        62.84260         0.53742
O         68.18622        33.70917         2.95567
H         68.95091        34.20219         3.32244
O         67.29348        68.68638        -2.38481
H         68.06453        68.97212        -2.91790
O         62.78250        54.25200         3.08352
H         62.49231        53.38006         3.45949
O         49.15270        46.47363        -2.58984
H         48.53940        47.09334        -3.03944
O         58.53943        63.53413        -0.00630
H         57.78713        64.09943        -0.28279
O         64.69110        36.65370        -1.94427
H         65.11967        37.41622        -2.40103
O         63.86946        42.15723        -2.17692
H         63.42691        41.40584        -2.64061
O         68.40021        42.47969         2.07850
H         68.88600        41.74450         2.52399
O         53.45661        49.81899        -1.26438
H         53.16883        50.58323        -1.81507
O         47.32194        52.76783        -2.92079
H         46.76896        52.18663        -3.48912
O         56.29369        56.24133         4.12595
H         55.49006        55.77446         4.45857
O         66.48305        51.99411         2.10165
H         65.74088        51.53061         2.54741
H         38.15575        49.70160        -2.40537
H         36.21004        50.96381        -3.25931
H         38.16133        54.68342        -2.28762
H         36.20902        53.46478        -3.19648
H         39.39744        48.78586        -1.16552
H         39.75462        55.68750        -1.64779
H         41.31317        47.49446        -0.43222
H         41.90241        56.74501        -1.83927
H         45.00484        45.05235        -0.95357
H         42.99355        46.37112        -0.61736
H         45.59502        58.59765        -0.38693
H         43.63301        57.64766        -1.43613
H         46.57305        43.99322        -0.87989
H         46.45036        58.89438         1.35096
H         48.60619        42.68443        -0.77593
H         48.00145        59.57480         3.17743
H         52.32940        40.38673        -0.80573
H         50.27727        41.67527        -1.04866
H         52.45455        62.29995         2.84243
H         50.47075        61.04396         3.69821
H         53.89946        39.34236        -0.34317
H         53.86905        63.13105         1.70129
H         55.98319        38.09943        -0.09202
H         55.96375        64.34301         1.23035
H         59.80079        35.90910         0.19370
H         57.67993        37.04967         0.13670
H         59.73409        66.63444         2.24303
H         57.62216        65.39559         2.22256
H         61.46102        35.01497         0.36322
H         61.18903        67.62707         1.35585
H         63.54277        33.81266         0.51343
H         63.09253        68.88086         0.51931
H         67.22022        31.68265         1.07813
H         65.23929        32.78537         0.27596
H         66.50963        71.19513        -0.23333
H         64.59079        69.84215        -0.30583
H         68.83552        30.89050         2.00698
H         68.36007        72.27495        -0.57393
H         73.08647        30.73993         1.28811
H         70.94845        29.59715         1.91576
H         73.10259        33.15224         0.78976
H         73.03678        34.95256         0.13902
H         73.04414        37.30448        -0.44924
H         73.00906        39.34324        -0.67409
H         72.91524        41.75231        -1.14149
H         73.14844        43.83865        -0.65707
H         73.08424        46.21976        -1.02033
H         73.06906        48.12426        -0.91362
H         73.10693        50.53504        -0.82674
H         73.00821        52.55466        -1.59632
H         72.99381        54.99218        -1.48240
H         72.76293        56.79552        -2.04549
H         72.77885        59.23148        -2.05865
H         72.34435        61.20586        -2.65758
H         72.25254        63.66107        -2.66286
H         72.55070        65.66344        -1.77910
H         72.25418        68.09718        -2.05735
H         71.50301        69.65693        -3.40613
H         71.44886        72.12845        -3.58290
H         69.86683        73.44901        -2.15654
