         429
 CSIRO Nanostructure Databank - Neutral Graphene Oxide Data Set
C          1.37567         1.98210         0.33085
C          1.25117         3.38334         0.59288
C          2.52798         1.29257         0.55291
C          2.36370         4.15999         0.89684
C          1.14071         6.33000         1.24672
C          1.15548         7.69600         1.39068
C          2.32386         5.58750         0.98038
C          2.40335         8.47619         1.34087
C          1.12390        10.76270         1.07006
C          1.11619        12.08750         0.78947
C          2.39103        10.02701         1.21829
C          2.34525        12.85011         0.67841
C          1.14224        15.05112         0.64148
C          1.14648        16.38647         0.85627
C          2.35145        14.25122         0.71014
C          2.36536        17.11040         1.35574
C          2.50307        18.50824         0.79729
C          3.72253         1.94519         1.19663
C          3.68217         3.46961         1.06346
C          5.00557         1.33428         0.69273
C          4.91695         4.20551         0.64845
C          3.52462         6.36034         0.59520
C          3.62081         7.79899         0.88163
C          4.79237         5.63861         0.24170
C          4.81655         8.49358         0.69214
C          3.61708        10.68170         0.72088
C          3.58830        12.11681         0.56274
C          4.80090         9.94086         0.60760
C          4.78923        12.83828         0.40110
C          3.60903        14.96714         0.86047
C          3.62948        16.31799         1.14012
C          4.85125        14.22950         0.69048
C          4.90730        17.03068         1.49092
C          3.70168        19.12002         0.67407
C          4.95693        18.46348         0.99051
C          6.15770         2.04727         0.34584
C          6.15039         3.48631         0.27136
C          7.38639         1.38081         0.06221
C          7.28080         4.19042        -0.15238
C          6.04953         6.40629         0.20741
C          6.05371         7.76152         0.39842
C          7.22903         5.66013        -0.30681
C          7.36861         8.46746         0.39438
C          6.02525        10.61591         0.14108
C          6.01802        12.13165         0.02371
C          7.35055         9.96537         0.41318
C          7.29968        12.84147         0.10688
C          6.10227        14.87951         0.81845
C          6.16142        16.27726         1.13027
C          7.31860        14.14497         0.53026
C          7.36399        16.97230         1.20393
C          6.15950        19.11428         0.94351
C          7.41428        18.41900         1.17646
C          8.55540         2.08676        -0.26512
C          8.51037         3.52362        -0.41689
C          9.79527         1.38945        -0.37672
C          9.69864         4.25340        -0.77430
C          8.49516         6.39268        -0.61570
C          8.60118         7.80319        -0.13865
C          9.75895         5.64930        -0.80431
C          9.71340         8.63893        -0.76976
C          8.63179        10.70854         0.21981
C          8.54235        12.11460        -0.35962
C          9.96016         9.94271         0.03082
C          9.83750        12.85355        -0.12846
C          8.61908        14.77756         0.84003
C          8.62455        16.21981         1.28314
C          9.85483        14.14765         0.32382
C          9.91928        16.97738         1.33657
C          8.62692        19.10412         1.20909
C          9.90852        18.45393         1.26811
C         10.98120         2.04742        -0.72889
C         10.89265         3.46638        -1.14325
C         12.23219         1.41331        -0.70829
C         12.18497         4.22660        -1.41051
C         10.98087         6.40333        -1.05942
C         11.00276         7.85523        -0.98837
C         12.16861         5.69849        -1.29929
C         12.17065         8.61211        -1.21837
C         11.05934        10.76821        -0.63476
C         11.03371        12.16313        -0.55386
C         12.18849        10.03973        -1.11247
C         12.16902        13.03927        -1.05765
C         11.02416        15.04738         0.00566
C         11.16144        16.27329         0.87802
C         12.32014        14.31032        -0.24394
C         12.36429        17.07372         0.65475
C         11.11233        19.13007         1.12594
C         12.37389        18.44675         0.91584
C         13.45309         2.12196        -0.91895
C         13.44731         3.49549        -1.24166
C         14.70061         1.44997        -0.71755
C         14.71352         4.20352        -1.46705
C         13.38408         6.41762        -1.72179
C         13.38982         7.92202        -1.73113
C         14.70065         5.68643        -1.73959
C         14.74961         8.63550        -1.85664
C         13.44407        10.77530        -1.42750
C         13.47289        12.27701        -1.26160
C         14.73782        10.05836        -1.34963
C         14.75616        12.91661        -0.89859
C         13.52735        14.90906        -0.04027
C         13.59570        16.28200         0.53485
C         14.78555        14.25281        -0.41557
C         14.89301        17.02699         0.60120
C         13.61433        19.16067         0.78642
C         14.82979        18.51259         0.54667
C         15.93044         2.12816        -0.74037
C         15.97062         3.54219        -1.04421
C         17.14870         1.45220        -0.47696
C         17.16396         4.23964        -1.02685
C         15.94247         6.45481        -1.44031
C         15.94448         7.82412        -1.36196
C         17.23289         5.66397        -1.54459
C         17.18121         8.55864        -1.10192
C         15.92746        10.74299        -1.26475
C         15.95952        12.19491        -1.06868
C         17.19568        10.00733        -1.15353
C         17.19081        12.89915        -1.05415
C         16.01819        14.92394        -0.32680
C         16.19421        16.30868         0.28736
C         17.20196        14.27498        -0.76406
C         17.13240        17.14603        -0.58401
C         16.02701        19.22746         0.27841
C         17.21690        18.58707        -0.12022
C         18.37595         2.13422        -0.48177
C         18.39315         3.55396        -0.73464
C         19.60356         1.44762        -0.25843
C         19.61777         4.25765        -0.71186
C         18.42652         6.41308        -1.02401
C         18.37141         7.82905        -0.90352
C         19.61600         5.70034        -0.79374
C         19.60298         8.53634        -0.52457
C         18.38837        10.72441        -1.09677
C         18.40968        12.16348        -1.60180
C         19.61599        10.05829        -0.67631
C         19.77401        12.93101        -1.40773
C         18.45828        15.03014        -0.76754
C         18.46255        16.43120        -0.61145
C         19.68132        14.32322        -0.79698
C         19.67159        17.14393        -0.50589
C         18.43347        19.27159        -0.19704
C         19.67644        18.59311        -0.38844
C         20.83328         2.11530        -0.28553
C         20.84930         3.54883        -0.51042
C         22.06179         1.42379        -0.06717
C         22.07417         4.23509        -0.52400
C         20.86330         6.40245        -0.65068
C         20.88867         7.81904        -0.59546
C         22.08132         5.67215        -0.61032
C         22.10682         8.52492        -0.54984
C         20.92510        10.72953        -0.79750
C         20.95386        12.13069        -0.87216
C         22.11859         9.98641        -0.58269
C         22.17606        12.82611        -0.68699
C         20.87138        15.00835        -0.50579
C         20.89535        16.42568        -0.40938
C         22.05139        14.20591        -0.02240
C         22.14061        17.15383        -0.35525
C         20.89404        19.27850        -0.36495
C         22.14484        18.58801        -0.39100
C         23.29807         2.08357        -0.06080
C         23.32087         3.52432        -0.30931
C         24.53170         1.39451         0.09887
C         24.52724         4.18981        -0.36325
C         23.30423         6.38099        -0.64526
C         23.33304         7.78923        -0.61070
C         24.55093         5.60699        -0.75556
C         24.61082         8.47116        -0.52341
C         23.34593        10.67659        -0.55435
C         23.38434        12.08491        -0.66961
C         24.59773         9.93225        -0.14569
C         24.67476        12.78087        -0.72914
C         23.30297        15.06657         0.20519
C         23.37573        16.45702        -0.32293
C         24.75689        14.13492        -1.32763
C         24.59470        17.14371        -0.48712
C         23.37924        19.26979        -0.33836
C         24.61741        18.57775        -0.37482
C         25.77538         2.06259         0.13992
C         25.77072         3.56909         0.22507
C         26.99753         1.40152         0.27717
C         27.07740         4.22301        -0.16804
C         25.86419         6.34441        -0.75361
C         25.80522         7.79848        -0.54561
C         27.11627         5.60420        -0.43536
C         27.11286         8.48333        -0.21746
C         25.84132        10.64108        -0.61753
C         25.85083        12.11067        -0.56542
C         27.12977         9.91820        -0.69352
C         27.12708        12.80527        -0.19456
C         25.99582        14.95255        -1.05099
C         25.89327        16.47210        -0.73223
C         27.19374        14.24869        -0.59995
C         27.09806        17.13899        -0.25040
C         25.86165        19.25021        -0.22058
C         27.08666        18.54302        -0.03795
C         28.25392         2.09477         0.26949
C         28.28573         3.51292        -0.03890
C         29.45199         1.43020         0.53540
C         29.54794         4.17577        -0.22790
C         28.34543         6.27842        -0.54871
C         28.31746         7.73815        -0.75986
C         29.58162         5.59445        -0.49543
C         29.61788         8.49197        -0.83754
C         28.41195        10.66543        -0.60815
C         28.40324        12.06232        -0.49947
C         29.62822         9.95767        -0.63623
C         29.62343        12.77586        -0.47354
C         28.37841        14.91950        -0.29138
C         28.30662        16.36033         0.04330
C         29.61757        14.21467        -0.23364
C         29.55264        17.05922         0.53768
C         28.33053        19.21202         0.17411
C         29.56954        18.53649         0.32751
C         30.71013         2.10174         0.46137
C         30.74314         3.45416        -0.00950
C         31.91485         1.45597         0.80823
C         32.04435         4.08051        -0.26063
C         30.81652         6.33456        -0.56907
C         30.86865         7.73990        -0.63931
C         32.08868         5.60456        -0.55915
C         32.09818         8.46709        -0.52850
C         30.85724        10.65204        -0.60955
C         30.84001        12.06549        -0.56874
C         32.11315         9.90649        -0.57771
C         32.09851        12.84057        -0.80886
C         30.85155        14.89471        -0.02393
C         30.85287        16.22045         0.71646
C         32.07115        14.24305        -0.23373
C         32.13615        17.03579         0.52696
C         30.77861        19.21808         0.24391
C         32.07718        18.55658         0.38655
C         33.16971         2.13100         0.78981
C         33.25114         3.47503         0.29919
C         34.35098         1.49289         1.22126
C         34.46604         4.19596         0.32386
C         33.33166         6.33046        -0.26594
C         33.32320         7.75490        -0.31308
C         34.51169         5.61575         0.03421
C         34.55755         8.46738        -0.17289
C         33.32835        10.61579        -0.49056
C         33.34743        12.05909        -0.48628
C         34.57234         9.89823        -0.29850
C         34.53148        12.76589        -0.36597
C         33.32183        14.93807        -0.14392
C         33.36417        16.36387         0.05970
C         34.53114        14.20045        -0.26224
C         34.54928        17.09659        -0.17060
C         33.30743        19.23070        -0.00546
C         34.53182        18.57374        -0.08314
C         35.59444         2.16562         1.18906
C         35.65252         3.53358         0.75721
C         36.77877         1.52789         1.63695
C         36.90511         4.22132         0.74654
C         35.75295         6.32812         0.17467
C         35.76930         7.76082         0.03536
C         36.94872         5.63143         0.45294
C         37.00726         8.47570         0.14900
C         35.79168        10.59182        -0.22655
C         35.83352        12.04692        -0.61300
C         37.01271         9.90603         0.01788
C         37.05062        12.77635        -0.11633
C         35.77379        14.90245        -0.21690
C         35.75531        16.32993        -0.36786
C         37.01335        14.21638        -0.12303
C         36.99359        16.91300        -0.70732
C         35.70988        19.40510         0.06227
C         36.97932        19.04653        -0.38690
C         38.01397         2.19700         1.60928
C         38.07836         3.53031         1.10518
C         39.19017         1.61360         2.19233
C         39.42704         4.14403         0.86647
C         38.21687         6.33540         0.51013
C         38.22440         7.78225         0.35978
C         39.39774         5.64040         0.70279
C         39.45650         8.50413         0.42256
C         38.23463        10.63572         0.15167
C         38.21319        12.08149         0.14556
C         39.45991         9.93592         0.32961
C         39.45271        12.83108         0.57127
C         38.24557        14.94720        -0.06498
C         38.24373        16.35512        -0.36724
C         39.46546        14.27377         0.12553
C         39.43638        17.14795        -0.26370
C         38.26497        19.41371         0.05050
C         39.42592        18.59421        -0.11696
C         40.32499         2.38729         2.41033
C         40.44352         3.68378         1.88406
C         41.51997         4.55020         2.24230
C         40.75027         6.30081         0.61058
C         40.69389         7.80886         0.54819
C         41.65679         5.80241         1.71997
C         41.89166         8.51822         0.51737
C         40.71486        10.64835         0.34153
C         40.72769        12.09119         0.25539
C         41.90659         9.91404         0.41558
C         41.88511        12.82794         0.02588
C         40.68896        14.98172        -0.00953
C         40.67876        16.44320        -0.10506
C         41.88474        14.23289        -0.04894
C         41.87504        17.16297         0.03512
C         40.67309        19.25376         0.07885
C         41.87054        18.56273         0.10269
O         32.31702        17.87284         1.71122
O         36.97778        18.09675        -1.43339
O          3.87523         5.98235        -0.83419
O          7.52651         6.14993        -1.69006
O          4.54456         4.07691         2.08787
O         25.28200         5.87634        -2.02099
O         23.92591        14.48995        -2.16485
O         28.83138         8.14411        -2.05273
O         11.33710         3.71038        -2.51117
O         13.11566         7.17489        -2.96725
O         13.44699        11.67397        -2.60724
O         28.57783        16.61240         1.50976
O         14.82635         4.76695        -2.87601
O         14.33814        16.43059         1.82246
O         26.17224        15.94465        -2.10043
O         10.81674        16.32096         2.29359
O         26.35879        10.16301        -1.91258
O         32.21186         4.60657        -1.61986
O          8.38686         7.90815         1.30165
O          8.06010        10.57132         1.55221
O          8.62364        15.13871         2.27126
O         24.11054        14.70610         1.06556
O          5.89346        11.25026        -1.17339
O         19.47521         9.40450         0.64878
O          2.57418         9.35565         2.50621
O          2.18080        17.27586         2.81835
H          1.96282        16.39083         3.18235
O         24.66095         9.97123         1.32127
H         23.78268         9.70861         1.67133
O         27.25282         8.50084         1.22916
H         26.47561         8.98788         1.59553
O         15.02791         8.79127        -3.27518
H         14.52313         8.08418        -3.74549
O         41.38049         5.86379        -0.63927
H         41.16838         4.90089        -0.73960
O         27.04954        12.80581         1.28467
H         27.76705        13.38773         1.61953
O         16.56439        17.16161        -1.92036
H         17.17838        17.64778        -2.50904
O         39.39685        12.87908         2.05472
H         40.19841        13.35794         2.35624
O          8.44856        11.98601        -1.80247
H          7.55827        11.60887        -2.00827
O         32.16748        13.02177        -2.28251
H         31.29224        13.35247        -2.57846
O         10.63144        15.65094        -1.27778
H         10.79723        14.96735        -1.97842
O         17.46396         5.53082        -2.99130
H         16.62998         5.15362        -3.36878
O         39.89819         3.58290        -0.44219
H         39.16968         3.71412        -1.08735
O         10.48261         9.60664         1.32364
H          9.70765         9.46271         1.91945
O          4.91958        17.12161         2.95885
H          4.02090        17.43948         3.22514
O         11.73251        13.49545        -2.38021
H         12.04208        12.80525        -3.01910
O          3.66602         1.63238         2.62404
H          4.19386         2.33076         3.07515
O         21.68649        13.82338         1.34366
H         22.53206        13.74951         1.84697
O         30.87371        15.79663         2.10313
H         31.15583        16.57852         2.63142
O         16.88643        16.12388         1.54394
H         16.20112        15.89656         2.21368
O         25.65164         3.87514         1.67135
H         24.92826         3.31551         2.02762
O         20.23032        13.25198        -2.77164
H         21.11995        13.66445        -2.71269
O         35.97665        12.05555        -2.08720
H         35.12361        11.75015        -2.46569
O         18.12805        12.03190        -3.01925
H         18.75899        12.60264        -3.51456
O          9.22030         9.04460        -2.07013
H          9.19592         8.25923        -2.65739
H          0.49971         1.45777        -0.07875
H          0.28044         3.86619         0.41377
H          2.58262         0.21682         0.33223
H          0.19593         5.78906         1.40302
H          0.23150         8.21473         1.68068
H          0.17663        10.23331         1.24318
H          0.15341        12.61349         0.72586
H          0.20090        14.56126         0.35204
H          0.21197        16.96070         0.76535
H          1.58006        19.04963         0.53984
H          5.07472         0.23709         0.75726
H          3.74939        20.15602         0.30182
H          7.42760         0.28426         0.14275
H          6.19748        20.18383         0.68210
H          9.82205         0.31435        -0.14511
H          8.61200        20.20195         1.12441
H         12.28482         0.34871        -0.43700
H         11.11000        20.23074         1.10316
H         14.68655         0.37744        -0.47463
H         13.59653        20.26087         0.81919
H         17.12927         0.36986        -0.28182
H         16.02976        20.32019         0.41845
H         19.57910         0.36352        -0.07204
H         18.45613        20.34909         0.03064
H         22.03082         0.33668         0.10130
H         20.89490        20.37667        -0.29575
H         24.51731         0.29493         0.15245
H         23.38340        20.36639        -0.24979
H         27.00894         0.30472         0.37456
H         25.86574        20.34733        -0.14806
H         29.43431         0.36654         0.81542
H         28.34255        20.31117         0.13472
H         31.88308         0.41045         1.14794
H         30.77358        20.29372         0.01299
H         34.30689         0.45532         1.58346
H         33.28156        20.32633        -0.10501
H         36.72376         0.50035         2.02608
H         35.59536        20.32088         0.66181
H         39.13084         0.59389         2.59837
H         38.39204        20.36000         0.59859
H         41.14080         1.98935         3.03289
H         42.24679         4.18747         2.98670
H         42.51005         6.42725         2.02311
H         42.84636         7.97629         0.56155
H         42.87596        10.43045         0.41232
H         42.84133        12.31108        -0.13853
H         42.84509        14.73496        -0.22574
H         42.83239        16.63503         0.13627
H         40.67318        20.34724         0.19416
H         42.81848        19.10501         0.22303
