         315
 CSIRO Nanostructure Databank - Neutral Graphene Oxide Data Set
C         30.03223        32.01574        -1.40976
C         30.15473        33.21641        -1.65149
C         30.25028        36.07084        -0.36152
C         30.47737        37.07155         0.33098
C         31.51737        38.74633         2.78293
C         31.88539        39.51391         3.67655
C         32.36244        29.20468        -0.62285
C         31.30568        29.79229        -0.85946
C         32.50253        31.91304        -1.35542
C         31.16594        31.28789        -0.75061
C         32.56824        33.20935        -1.80200
C         31.25319        34.14039        -1.97973
C         32.29033        36.42756        -1.43009
C         31.40153        35.27599        -0.93365
C         32.58965        37.55630        -0.74756
C         31.54338        38.12549         0.27366
C         33.44513        39.33263         1.44486
C         32.29114        38.27276         1.59879
C         33.92225        40.10335         2.64786
C         33.08637        40.31723         3.73879
C         34.71915        41.76572         4.66806
C         33.62959        41.17580         4.76190
C         35.02256        27.58094        -0.22663
C         34.93470        28.90212        -0.56569
C         33.72446        29.78598        -0.46666
C         35.06851        31.68867        -1.51634
C         33.70525        30.96954        -1.52261
C         35.12641        33.20650        -1.36994
C         33.87279        33.89484        -1.88590
C         35.24046        36.01725        -1.71103
C         34.05243        35.24240        -2.05329
C         35.17157        37.34805        -1.31067
C         33.94694        38.25818        -0.99124
C         35.62492        40.00166         0.11273
C         34.28498        39.23445         0.19168
C         36.21610        40.34028         1.51464
C         35.16458        40.98286         2.45966
C         36.98552        42.48009         3.55193
C         35.89028        41.40131         3.80193
C         36.61479        43.96436         3.71428
C         37.48509        27.46550         0.04256
C         36.21412        27.06040        -0.00237
C         37.54921        28.82194        -0.75689
C         36.29025        29.63710        -0.39774
C         37.52514        31.82805        -0.76931
C         36.32089        30.98080        -1.10798
C         37.68078        33.07484        -1.59531
C         36.39349        33.79486        -2.06538
C         37.70664        35.93214        -1.99044
C         36.50151        35.29636        -1.86885
C         37.67592        37.40415        -2.05391
C         36.42189        38.12107        -1.50631
C         37.91597        39.99482        -0.82485
C         36.68697        39.34688        -0.74259
C         38.35389        40.97681         0.23880
C         37.33691        41.34828         1.29505
C         38.30734        43.63133         1.54072
C         37.54958        42.42079         2.09402
C         38.68747        44.73330         2.64174
C         37.35501        44.88615         3.34070
C         39.53545        25.13257         2.02901
C         38.73951        25.60189         1.21142
C         39.90794        27.62450         0.71198
C         38.75754        26.70682         0.20817
C         39.94289        28.96301         0.39699
C         38.91871        29.64132        -0.52321
C         40.04260        31.98064        -0.05971
C         38.73893        31.16820        -0.20800
C         40.23440        33.16224        -1.03093
C         39.02676        33.74079        -1.71537
C         40.25372        35.93867        -1.65002
C         39.03890        35.19465        -2.25920
C         40.31801        37.42812        -2.06836
C         38.95467        38.17674        -2.12614
C         40.18154        40.39058        -1.98106
C         38.95843        39.55242        -1.67780
C         40.16461        41.78532        -1.36277
C         39.13392        42.14593        -0.32023
C         40.21603        44.45065        -0.00371
C         39.54217        43.20535         0.69153
C         40.77673        45.37248         1.10001
C         39.28445        45.97861         1.98215
C         40.93226        47.81978         2.58152
C         40.01941        46.99159         2.75099
C         42.02839        25.37130         2.98380
C         40.99444        25.48324         1.89017
C         42.27018        27.78404         1.70750
C         40.97709        27.03132         1.57658
C         42.40824        29.04761         0.92887
C         41.16382        29.76178         0.54135
C         42.50525        31.79608         0.16732
C         41.24909        31.08218         0.13698
C         42.61697        33.04474        -0.52602
C         41.48126        33.74296        -1.15445
C         42.74261        36.02999        -1.37232
C         41.58985        35.14000        -1.88173
C         42.78466        37.50689        -1.73176
C         41.47455        38.24047        -1.67891
C         42.64873        40.41451        -1.47844
C         41.46648        39.63984        -1.63858
C         42.62241        41.84559        -1.42424
C         41.42527        42.54656        -1.30399
C         42.68339        44.74875        -0.88955
C         41.34399        44.03901        -1.09087
C         42.84987        45.89108        -0.16794
C         41.66563        46.51351         0.58344
C         43.08354        48.41438         1.10856
C         42.16163        47.45832         1.82591
C         43.10775        25.96822         3.02426
C         44.63904        28.02720         2.57258
C         43.58133        27.05910         2.09777
C         44.74525        29.34603         2.05669
C         43.68057        29.84478         1.15400
C         44.85099        32.02300         0.98956
C         43.65852        31.25813         0.78419
C         45.01528        33.21791         0.20897
C         43.95856        33.47190        -0.67861
C         45.13258        36.10074        -0.51105
C         43.99674        35.50832        -1.30807
C         45.26405        37.55989        -1.01667
C         43.86941        38.26837        -0.95719
C         45.06490        40.50645        -0.68185
C         43.99691        39.71377        -1.50373
C         45.19112        41.93482        -1.18438
C         43.90355        42.60351        -1.52398
C         45.14970        44.86120        -1.66499
C         43.85987        44.10802        -1.55538
C         44.98593        46.42661        -1.43275
C         44.26383        46.58293        -0.09803
C         43.97643        47.96791         0.37999
C         46.84211        28.40078         3.53562
C         45.77956        27.74147         3.32527
C         47.03131        29.69435         3.01546
C         45.88914        30.19052         2.30222
C         47.04641        32.47577         2.07110
C         45.92366        31.51772         1.75844
C         47.32356        33.46001         0.95037
C         46.28870        33.94685         0.19554
C         47.64817        36.12195        -0.16926
C         46.44184        35.24381        -0.62815
C         47.63880        37.62127        -0.17109
C         46.31092        38.35274        -0.21001
C         47.54724        40.59583         0.03805
C         46.45263        39.79927        -0.73801
C         47.63494        42.01739        -0.51218
C         46.32498        42.79685        -0.62871
C         47.63246        44.81847        -1.19716
C         46.44247        44.13641        -1.34039
C         47.42974        46.23681        -1.36099
C         46.41574        46.93525        -1.42695
C         49.37206        29.93015         2.14730
C         48.32646        30.43601         3.13762
C         49.51068        32.57001         2.66855
C         48.27529        31.85333         2.67534
C         49.75212        33.61325         1.78193
C         48.72573        34.00093         0.73927
C         50.01374        36.21688         0.63475
C         48.66329        35.53716         0.80612
C         50.05763        37.55855         0.41425
C         48.78654        38.39452         0.52628
C         49.97562        40.39996        -0.79303
C         48.85527        39.82157         0.02277
C         50.13534        41.93286        -0.40225
C         48.82147        42.65970        -0.63126
C         50.97939        44.33328        -3.08913
C         48.84536        44.15708        -0.66049
C         50.04124        29.97400         1.09892
C         51.71826        31.57803         0.50588
C         51.13559        30.29190         0.27131
C         51.68100        32.77676         0.76416
C         51.19232        34.03069         1.46517
C         52.38077        36.26819         0.86169
C         51.28221        35.29295         0.56914
C         52.47219        37.45742         0.54381
C         51.34221        38.24088        -0.00359
C         52.45405        40.52301        -0.70640
C         51.32272        39.59399        -0.62525
C         52.44528        41.76211        -0.84584
C         51.30131        42.56192        -1.18453
C         51.17483        43.49813        -2.16093
O         39.59166        29.67325        -1.74593
O         44.84061        42.12555        -2.56907
O         37.74355        31.79322         0.67294
O         43.46772        28.99103        -0.05441
O         38.55036        32.79892        -2.73944
O         33.04921        36.08753        -2.55543
O         33.22032        40.23047         0.31130
O         36.74597        38.07866        -2.94547
O         41.27036        27.86729         2.74893
O         44.19365        34.23461        -1.82053
O         44.38248        44.54828        -2.86160
O         35.96394        31.08512        -2.51638
O         38.94437        42.54071        -1.67565
O         40.80084        44.60465        -2.36137
O         39.72441        37.84047        -3.32797
O         49.75801        44.76173        -0.10961
O         48.15611        36.89073        -1.30850
O         51.38286        38.40898        -1.44632
O         38.05053        42.20260         4.35873
O         36.70902        39.09629         2.04462
H         36.80774        39.22715         3.02908
O         40.45743        42.50842         1.53413
H         40.47878        42.95680         2.41774
O         33.75646        30.42380         0.83815
H         33.37926        29.79758         1.49210
O         51.56078        29.51666        -0.71502
H         51.02050        28.70573        -0.79635
O         32.86327        36.98558         1.87187
H         33.14309        36.95555         2.81141
O         34.72283        42.21640         1.87864
H         34.24899        42.00182         1.03959
O         35.25692        33.49643         0.04275
H         34.40912        33.26989         0.48355
O         38.40030        46.61018         1.12994
H         37.80016        45.92943         0.72690
O         37.32870        44.22652         0.65808
H         36.45641        44.18949         1.11043
O         31.10414        34.58931        -3.30515
H         31.88109        35.13118        -3.56996
O         40.91439        47.31985        -0.31802
H         41.47486        48.06983        -0.61421
O         36.54058        40.28314         4.37802
H         37.38273        40.67638         4.76133
O         31.16310        31.61207         0.62057
H         30.28514        31.39778         0.99679
O         44.40504        39.61068        -2.87421
H         44.50054        40.53253        -3.22712
O         41.50151        24.81783         0.76827
H         41.31113        23.86048         0.83207
O         40.22935        40.58544        -3.42161
H         40.12466        39.69895        -3.84403
O         35.35412        41.25786        -0.54959
H         34.98951        41.05309        -1.43872
O         45.85462        38.39298         1.15338
H         46.57129        38.79042         1.70625
O         39.32860        40.16807         0.98520
H         38.81161        39.58106         1.58348
O         43.36586        38.28296         0.38934
H         43.80926        39.03007         0.87600
O         45.93871        43.14125         0.74577
H         45.65322        44.09166         0.78583
O         48.15637        35.76776         2.14765
H         48.16509        36.74330         2.32735
O         39.98169        32.68624         1.22030
H         39.02711        32.73351         1.47753
O         49.10571        33.51786        -0.56145
H         49.92816        33.97114        -0.87393
O         45.01984        45.89622         0.90784
H         44.59399        46.10757         1.77636
O         41.56527        44.62065         1.98835
H         41.98427        45.22435         2.64646
O         48.45240        38.45221         1.96192
H         49.06784        39.08399         2.39243
O         46.51755        33.36123         3.14203
H         46.97956        34.23034         3.05491
O         43.00594        46.71034         2.70940
H         43.07431        47.20651         3.55308
O         46.92843        39.79347        -2.08842
H         46.46819        39.05576        -2.57619
O         39.21794        45.13619        -0.72809
H         39.56244        46.02849        -0.96650
O         30.99733        39.34774        -0.17359
H         30.29449        39.16028        -0.82794
O         50.43504        41.98790         1.00373
H         50.60520        42.92950         1.23074
O         51.96141        34.26505         2.62519
H         51.80935        33.52139         3.25218
O         33.81503        39.13458        -2.12957
H         33.06259        39.73653        -1.93698
O         48.84541        30.30717         4.47713
H         48.59879        29.41940         4.81836
O         39.60378        44.19194         3.56793
H         39.10906        43.48355         4.09314
O         51.43014        34.86527        -0.78398
H         51.56228        35.65334        -1.35531
O         37.52232        28.45456        -2.12172
H         38.36852        28.83750        -2.51292
O         41.49368        43.95128        -3.45284
H         40.80687        43.33332        -3.80829
O         32.09000        34.69668         0.17519
H         32.19939        35.38240         0.87905
O         44.18663        46.99176        -2.42528
H         44.32018        46.50304        -3.26788
O         43.11066        37.48154        -3.15714
H         42.52207        36.80962        -3.58348
O         44.74555        36.04547         0.87048
H         44.15290        36.82295         1.04884
O         41.77299        34.94385        -3.29080
H         42.55416        34.36067        -3.41014
O         50.52952        32.13182         3.46145
H         50.18986        31.43360         4.07468
O         44.56883        40.60163         0.66632
H         45.30526        40.94166         1.23692
O         36.25852        33.60750        -3.48153
H         36.34209        32.64164        -3.66216
O         33.52288        30.38669        -2.81711
H         34.40814        30.12772        -3.16189
O         49.64680        40.36691        -2.18472
H         48.71641        40.04404        -2.30407
O         47.11076        40.75446         1.42516
H         47.61415        41.50327         1.81164
O         39.12369        26.18118        -1.06990
H         38.65042        26.69689        -1.76324
O         45.70335        37.47066        -2.38539
H         44.89733        37.46797        -2.97062
O         40.01433        35.96238        -0.22624
H         40.83917        36.23021         0.23368
O         36.37935        29.85114         1.02347
H         35.55859        30.32042         1.30971
O         39.18747        35.15540        -3.67445
H         38.64323        34.40416        -4.00559
O         46.67618        34.88958        -1.98602
H         46.99588        35.69855        -2.44897
O         44.08412        26.43778         0.91882
H         44.90960        25.95749         1.13305
