         640
 CSIRO Nanostructure Databank - Neutral Graphene Oxide Data Set
C         23.65085        26.55128        -2.13128
C         23.42370        27.91250        -2.05817
C         22.93037        31.86173         0.00054
C         23.00454        33.13073         0.57923
C         23.08080        35.97327         1.11938
C         23.05463        37.29264         0.75142
C         22.93730        40.24996         0.28038
C         22.97953        41.59980         0.22465
C         22.93213        44.54512        -0.12093
C         22.96881        45.87348         0.10885
C         26.01004        24.02090        -0.67935
C         24.96043        24.55022        -1.40027
C         25.25294        26.71869        -0.28575
C         24.59680        25.92451        -1.27456
C         24.95026        28.10295        -0.18145
C         24.08704        28.71015        -1.08463
C         25.35882        31.66080         0.05301
C         24.09037        31.11399        -0.27309
C         25.42250        33.06487         0.35979
C         24.23603        33.77582         0.69905
C         25.55281        35.91790         0.68688
C         24.35530        35.18708         1.23964
C         25.49962        37.34436         0.48175
C         24.23012        38.02150         0.44715
C         25.42140        40.21417         0.37233
C         24.16917        39.44955        -0.06960
C         25.41227        41.67410        -0.04173
C         24.20462        42.33513        -0.05985
C         25.44375        44.51573        -0.25620
C         24.15445        43.77465        -0.54121
C         25.43934        45.93109        -0.12229
C         24.20477        46.62634         0.04988
C         25.40509        48.73336         0.17622
C         24.21087        48.02077         0.20171
C         28.15179        22.97489         1.09044
C         28.05214        24.37928         0.74392
C         26.75061        24.83060         0.23588
C         28.06728        27.42691         0.80340
C         26.29409        26.11940         0.47268
C         27.95691        28.82667         0.45621
C         26.72895        29.48236         0.45239
C         27.93651        31.64505        -0.05946
C         26.63536        30.92665         0.25702
C         27.81346        33.08348        -0.50395
C         26.66303        33.77640         0.20235
C         27.96760        35.90256         0.08693
C         26.72165        35.19037         0.33932
C         28.01420        37.36874         0.44424
C         26.69241        38.03700         0.21689
C         27.90560        40.21884        -0.35360
C         26.63904        39.46592        -0.13077
C         27.90138        41.69367        -0.25225
C         26.67217        42.37586        -0.21491
C         27.91287        44.52733        -0.27427
C         26.66661        43.81600        -0.25571
C         27.91261        45.95902        -0.25226
C         26.66920        46.66061        -0.11649
C         27.89904        48.80945        -0.00271
C         26.64816        48.07810         0.02027
C         27.94005        50.20985         0.18481
C         30.59484        23.02444         1.02119
C         29.32604        22.34828         1.33709
C         30.50652        24.47932         0.64554
C         29.19385        25.19041         0.73114
C         30.43851        27.37445         0.31006
C         29.19880        26.64045         0.57550
C         30.39588        28.75969        -0.00605
C         29.15429        29.51269        -0.02302
C         30.26097        31.51801        -1.15494
C         29.11944        30.84781        -0.40328
C         30.39884        33.01109        -0.68633
C         29.15557        33.76297        -0.27492
C         30.41978        35.94066        -0.26767
C         29.16108        35.24354        -0.18724
C         30.43853        37.36951        -0.26489
C         29.20543        38.10299        -0.13418
C         30.37720        40.25124        -0.46194
C         29.18935        39.49154        -0.29756
C         30.37767        41.65729        -0.43684
C         29.14055        42.38687        -0.32698
C         30.38149        44.52853        -0.43735
C         29.14291        43.81566        -0.33521
C         30.37632        45.95704        -0.43945
C         29.13552        46.67328        -0.32716
C         30.34008        48.84125        -0.27204
C         29.12646        48.11385        -0.21886
C         30.36016        50.23421        -0.07508
C         29.13669        50.90284         0.16654
C         33.15779        20.79780         2.83331
C         32.00702        21.20009         2.23879
C         33.09888        23.38204         1.60059
C         31.94483        22.45819         1.47840
C         33.03330        24.69707         1.14658
C         31.78615        25.28310         0.60962
C         32.90240        27.48725         0.33420
C         31.70037        26.75518         0.47204
C         32.86718        28.84144        -0.10603
C         31.59994        29.45854        -0.28568
C         32.73632        31.21602        -1.44546
C         31.55502        30.74374        -0.92009
C         32.73130        33.38304        -1.62748
C         31.57863        33.87142        -0.99413
C         32.86801        35.94538        -0.72757
C         31.62663        35.23686        -0.58978
C         32.87293        37.36724        -0.62863
C         31.65135        38.05818        -0.49046
C         32.88216        40.23249        -0.29034
C         31.64416        39.53068        -0.82266
C         32.86269        41.70698        -0.62405
C         31.63298        42.38454        -0.54544
C         32.84792        44.52958        -0.60224
C         31.61466        43.81978        -0.55295
C         32.83407        45.95775        -0.52128
C         31.61181        46.65167        -0.49150
C         32.79914        48.75919         0.12577
C         31.63295        48.15333        -0.64592
C         32.83580        50.26121        -0.04321
C         31.63565        50.96195        -0.08472
C         32.84554        53.08452         0.01853
C         31.66767        52.39965        -0.07443
C         35.73866        19.63754         3.60943
C         35.66075        21.12178         3.38622
C         34.35309        21.60330         2.77042
C         35.52803        23.74626         2.32303
C         34.30575        22.86071         2.20311
C         35.46418        24.97290         1.45915
C         34.22200        25.53185         1.11618
C         35.37189        27.60486         0.42641
C         34.16992        26.86012         0.59654
C         35.33288        28.95975        -0.08337
C         34.09102        29.55132        -0.37773
C         35.22345        31.62462        -1.22377
C         34.05561        30.83209        -1.03351
C         35.22578        33.05336        -1.83818
C         34.01491        33.89826        -1.45470
C         35.30482        35.97178        -1.26053
C         34.08442        35.25844        -1.06153
C         35.29960        37.38705        -1.18645
C         34.09810        38.10314        -0.86264
C         35.19764        40.24821        -1.30068
C         34.10290        39.51558        -0.80471
C         35.29856        41.69767        -1.17373
C         34.08931        42.40254        -0.83361
C         35.32722        44.53893        -0.76609
C         34.08755        43.83128        -0.75765
C         35.32546        45.95960        -0.56157
C         34.09561        46.67097        -0.44992
C         35.30720        48.77035        -0.05867
C         34.09982        48.06168        -0.20028
C         35.27969        50.19399         0.12551
C         34.09535        50.94126         0.04272
C         35.31964        53.10149         0.08448
C         34.11221        52.40340         0.06001
C         35.45424        54.54113         0.02648
C         38.08278        19.51231         2.87031
C         36.87180        18.92887         3.41551
C         38.04909        20.85887         2.45139
C         36.85438        21.65384         2.61216
C         37.95492        23.57053         1.53867
C         36.80214        22.94893         2.13693
C         37.91689        24.91080         1.12426
C         36.66187        25.64094         1.12158
C         37.89127        27.73923         0.54242
C         36.60903        26.96936         0.65191
C         37.77927        29.02195        -0.24561
C         36.53392        29.67400        -0.40284
C         37.71702        31.71845        -1.15784
C         36.48143        31.01912        -0.93097
C         37.72783        33.13956        -1.45582
C         36.51189        33.82550        -1.56887
C         37.73474        35.96527        -1.79625
C         36.52281        35.25763        -1.58523
C         37.68384        37.42739        -2.07797
C         36.41705        38.11168        -1.69753
C         37.96574        40.51005        -2.09142
C         36.18268        39.46178        -1.96369
C         37.82228        41.78563        -1.48848
C         36.53672        42.42102        -1.25405
C         37.80381        44.51998        -0.74840
C         36.55803        43.82330        -0.92135
C         37.80621        45.95113        -0.47830
C         36.56103        46.66778        -0.42402
C         37.79963        48.76962        -0.04472
C         36.55650        48.06385        -0.16592
C         37.81952        50.17546         0.15505
C         36.54571        50.91631         0.49021
C         37.83686        53.00743         0.41881
C         36.59694        52.31479        -0.09167
C         37.69431        54.34971         1.07400
C         36.60779        55.15713         0.39802
C         40.58227        16.72769         3.25310
C         39.40147        17.42322         3.29104
C         40.42990        19.31518         2.11778
C         39.29555        18.74564         2.74789
C         40.38377        20.67130         1.63240
C         39.19988        21.45040         1.83115
C         40.31179        23.38577         0.79386
C         39.16029        22.79715         1.38740
C         40.27461        24.73367         0.31694
C         39.06295        25.51690         0.48682
C         40.10856        27.45195        -0.65758
C         39.01582        26.84765         0.09232
C         40.18426        28.91491        -0.76717
C         38.96516        29.65503        -0.66100
C         40.20278        31.71218        -1.18531
C         38.94773        31.03843        -1.02869
C         40.20520        33.15736        -1.33133
C         38.97002        33.85755        -1.49568
C         40.23761        35.97251        -1.75360
C         38.98953        35.27500        -1.73255
C         40.35010        37.41107        -2.24209
C         39.01637        38.20551        -2.23488
C         40.28177        40.33662        -1.56955
C         39.08172        39.67009        -1.93255
C         40.27074        41.71692        -1.32507
C         39.04844        42.43888        -1.18535
C         40.29651        44.50209        -0.62339
C         39.03882        43.83311        -0.84538
C         40.28411        45.87930        -0.01294
C         39.01310        46.64266        -0.28225
C         40.26937        48.78024        -0.02793
C         39.03074        48.05946        -0.12601
C         40.27044        50.18542         0.09495
C         39.02420        50.88534         0.15443
C         40.29426        53.11064         0.32589
C         39.01257        52.32814         0.36730
C         40.23318        54.39644         1.11102
C         39.01551        55.05195         1.31620
C         40.18427        56.96031         2.26865
C         39.00431        56.33253         1.92065
C         42.97548        16.58811         2.61424
C         41.74286        17.28723         2.63874
C         42.80316        19.11449         1.38753
C         41.65936        18.57398         2.03493
C         42.66408        20.37767         0.58077
C         41.51385        21.25052         1.01614
C         42.70032        23.24509         0.14867
C         41.50471        22.61445         0.63759
C         42.68151        24.60696        -0.21162
C         41.44460        25.31674        -0.19954
C         42.65686        27.42079        -0.96500
C         41.40870        26.65996        -0.78531
C         42.62206        28.78982        -1.19096
C         41.38829        29.54092        -1.10162
C         42.67471        31.66696        -1.19252
C         41.40697        30.98077        -1.19026
C         42.64531        33.12327        -0.80425
C         41.41057        33.86525        -1.25338
C         42.68193        35.98997        -1.24019
C         41.43918        35.28221        -1.42981
C         42.69084        37.43710        -1.28505
C         41.52502        38.14456        -1.62296
C         42.76626        40.31664        -1.20526
C         41.59096        39.63178        -1.85214
C         42.77134        41.69344        -1.03785
C         41.56010        42.49224        -1.45614
C         42.75204        44.53282        -0.56608
C         41.50540        43.85768        -0.81920
C         42.76428        45.94971        -0.39888
C         41.54014        46.66475        -0.27757
C         42.74008        48.80708        -0.11198
C         41.52664        48.07439        -0.14614
C         42.75083        50.18889         0.18020
C         41.51382        50.90692         0.27289
C         42.74673        52.96184         0.84484
C         41.53050        52.28662         0.55103
C         42.71782        54.33205         1.31352
C         41.45970        55.01175         1.48799
C         42.65847        56.93966         2.42758
C         41.43022        56.31366         2.06530
C         44.08770        17.14657         2.01968
C         45.20943        19.01826         0.76982
C         44.01923        18.41526         1.37911
C         45.18303        20.39283         0.36489
C         43.96147        21.12927         0.40642
C         45.14143        23.16989        -0.28801
C         43.93408        22.49327         0.08745
C         45.12513        24.56576        -0.59766
C         43.89669        25.29696        -0.59282
C         45.13463        27.38382        -1.07144
C         43.89719        26.67987        -0.89877
C         45.14778        28.79983        -1.25722
C         43.87113        29.51260        -1.64302
C         45.13901        31.67310        -1.21537
C         43.87505        30.98366        -1.29154
C         45.13931        33.11804        -1.11844
C         43.93069        33.83809        -1.08916
C         45.14553        35.94001        -0.88079
C         43.91555        35.26407        -1.06691
C         45.11002        37.38687        -0.47955
C         43.91324        38.14065        -0.99937
C         45.17941        40.26022        -0.77579
C         43.95993        39.55702        -0.98468
C         45.19621        41.65748        -0.62016
C         43.97158        42.38568        -0.69239
C         45.21795        44.50219        -0.35661
C         43.98012        43.81160        -0.55293
C         45.22151        45.93580        -0.29750
C         44.01182        46.63879        -0.36258
C         45.25416        48.79895         0.03558
C         44.02316        48.13179        -0.51933
C         45.22866        50.19019         0.23881
C         43.99638        50.89653         0.33771
C         45.21878        52.97045         0.99907
C         43.98352        52.27385         0.71759
C         45.18972        54.30488         1.49412
C         43.91709        54.98070         1.68123
C         43.85615        56.29752         2.23146
C         47.56973        18.91924         0.16170
C         46.40734        18.30797         0.63966
C         47.59596        20.27890        -0.17902
C         46.38261        21.03296        -0.07419
C         47.53259        23.10180        -0.82284
C         46.35153        22.43503        -0.38547
C         47.55834        24.49968        -0.99972
C         46.34553        25.24412        -0.87403
C         47.60466        27.36968        -1.06717
C         46.35831        26.66448        -1.01259
C         47.60370        28.80042        -1.12113
C         46.35929        29.51070        -1.23135
C         47.61879        31.66175        -1.24023
C         46.35967        30.96314        -1.25338
C         47.62372        33.11108        -1.14276
C         46.38584        33.81777        -1.06500
C         47.61691        35.92701        -0.66329
C         46.37500        35.23383        -0.86230
C         47.61485        37.37478        -0.59022
C         46.43083        38.07630        -0.68448
C         47.68733        40.24220        -0.53455
C         46.46290        39.53632        -1.03966
C         47.66136        41.61243        -0.29994
C         46.44108        42.36244        -0.39726
C         47.70386        44.49409        -0.14109
C         46.44126        43.77233        -0.26869
C         47.69555        45.93532        -0.01783
C         46.46433        46.65358        -0.06267
C         47.61658        48.70729         0.85714
C         46.43919        48.04876         0.18174
C         47.72899        50.19155         0.59998
C         46.51735        50.96656         0.13389
C         47.67129        53.01152         0.99925
C         46.46705        52.33658         0.76761
C         47.63021        54.31949         1.52094
C         46.41850        54.94632         1.76752
C         50.05500        20.30272        -0.65225
C         48.81916        20.91598        -0.66032
C         50.05132        23.07831        -1.37693
C         48.71650        22.30440        -1.13358
C         50.02287        24.51144        -1.12465
C         48.81851        25.20909        -1.09368
C         50.06786        27.36349        -0.93816
C         48.82338        26.65356        -1.01652
C         50.07860        28.79492        -0.99554
C         48.83595        29.50776        -1.11426
C         50.11962        31.62525        -1.33966
C         48.82577        30.93323        -1.21876
C         50.11714        33.14884        -1.23710
C         48.83518        33.83069        -1.01571
C         50.10149        35.92663        -0.53711
C         48.84089        35.22625        -0.72825
C         50.11688        37.33843        -0.42660
C         48.88775        38.08750        -0.54016
C         50.18784        40.23283        -0.66670
C         48.89791        39.48393        -0.49324
C         50.18260        41.62497        -0.10541
C         48.88522        42.30141         0.25213
C         50.18572        44.44968        -0.12387
C         48.89455        43.77925        -0.05452
C         50.20449        45.98302         0.03254
C         48.91106        46.64856         0.22642
C         50.13669        48.68307         0.85556
C         48.91871        47.99783         0.60179
C         50.14331        50.09979         1.05637
C         48.91025        50.84156         0.79633
C         50.20803        52.94962         1.19742
C         48.97411        52.34445         0.58175
C         51.27401        20.99349        -0.96014
C         52.55419        23.12894        -1.57220
C         51.31006        22.33308        -1.22730
C         52.55282        24.49331        -0.92981
C         51.25484        25.16039        -0.56445
C         52.50128        27.33179        -0.57549
C         51.27956        26.65356        -0.76198
C         52.52213        28.76397        -0.60921
C         51.32132        29.48621        -0.86961
C         52.57144        31.61934        -0.86531
C         51.37080        30.91649        -1.00104
C         52.59468        33.07480        -0.80742
C         51.36091        33.81344        -0.81923
C         52.57776        35.81664        -0.08517
C         51.32154        35.17082        -0.49847
C         52.58785        37.32312         0.08903
C         51.34780        38.05966        -0.21749
C         52.63842        40.15288        -0.08737
C         51.40505        39.44644        -0.27131
C         52.64724        41.56320         0.00172
C         51.38775        42.28706         0.03940
C         52.62566        44.40748         0.36532
C         51.42572        43.72221         0.17620
C         52.63780        45.83809         0.61895
C         51.42257        46.59261         0.56447
C         52.56628        48.64338         1.31119
C         51.37749        47.96223         0.91945
C         52.56662        50.03449         1.51918
C         51.33692        50.77132         1.36920
C         51.29194        52.21679         1.52552
C         54.97643        23.04298        -0.96317
C         53.84905        22.40166        -1.38742
C         54.97577        24.41848        -0.58196
C         53.74181        25.14626        -0.59574
C         54.90073        27.29294        -0.08848
C         53.72035        26.59177        -0.36041
C         54.90967        28.71710        -0.06254
C         53.74847        29.45946        -0.36825
C         55.00714        31.58397        -0.46913
C         53.79757        30.90287        -0.53650
C         55.09088        33.00616        -1.00685
C         53.82268        33.75417        -0.66498
C         55.06630        35.85146        -0.19434
C         53.86483        35.14003        -0.34173
C         55.09233        37.28710        -0.09479
C         53.87633        38.02028        -0.02505
C         55.11632        40.13648         0.00316
C         53.88033        39.42904        -0.03627
C         55.11257        41.55605         0.12131
C         53.87249        42.26918         0.16722
C         55.09423        44.37113         0.56763
C         53.87159        43.68071         0.38720
C         55.09161        45.77286         0.92075
C         53.83356        46.45834         1.02239
C         55.09247        48.58087         1.81248
C         53.79080        47.84807         1.51772
C         55.02039        50.04877         1.77665
C         53.83220        50.70667         1.71948
C         57.51596        24.43682        -0.19012
C         56.18481        25.04730        -0.02128
C         57.42436        27.28222         0.28764
C         56.13952        26.55387         0.24853
C         57.43205        28.69103         0.34103
C         56.14351        29.41408         0.33044
C         57.52279        31.54008        -0.05731
C         56.19403        30.93216         0.08744
C         57.58405        32.93592        -0.49984
C         56.34029        33.71198        -0.56667
C         57.60963        35.82253        -0.29311
C         56.33730        35.07819         0.04473
C         57.55815        37.28183        -0.66697
C         56.32086        38.00571        -0.19890
C         57.59169        40.14861        -0.13376
C         56.34507        39.41123        -0.10296
C         57.58728        41.56406         0.03725
C         56.34316        42.26726         0.19387
C         57.56071        44.39871         0.46176
C         56.33202        43.67104         0.42487
C         57.53577        45.80199         0.72367
C         56.31291        46.45887         1.06022
C         57.53707        48.63859         1.02653
C         56.43176        47.84519         1.68030
C         58.65042        25.13633         0.04994
C         59.85425        27.27474         0.42962
C         58.64173        26.56326         0.29905
C         59.85964        28.65777         0.49859
C         58.65627        29.39967         0.42956
C         59.89566        31.60507         0.53580
C         58.68051        30.85598         0.29044
C         59.96800        32.95284         0.36976
C         58.89286        33.67805        -0.30932
C         60.04431        35.89910        -0.44979
C         58.82888        35.16833        -0.32512
C         60.04609        37.29094        -0.41332
C         58.84974        38.02202        -0.38841
C         60.03449        40.20826        -0.25698
C         58.83071        39.45189        -0.27293
C         60.02489        41.58033        -0.11257
C         58.81310        42.29666         0.04465
C         59.97987        44.51256         0.15642
C         58.80082        43.73451         0.22168
C         59.93916        45.89733         0.29114
C         58.73613        46.55954         0.58248
C         58.65524        48.00859         0.61028
O         40.46798        26.76528        -1.90960
O         55.96369        25.59238         1.33761
O         31.43914        22.26237         0.10512
O         30.01861        33.14204         0.72695
O         58.54052        33.13937        -1.63347
O         26.95870        26.87280         1.46383
O         25.53503        28.87527         0.84526
O         49.22483        22.58434        -2.47005
O         52.49889        36.42741         1.25502
O         54.31021        47.99222         2.90806
O         23.81982        30.06117        -1.16322
O         32.62105        32.22618        -2.41629
O         36.94259        40.09572        -2.94439
O         50.22465        32.46976        -2.53817
O         38.21681        37.82688        -3.39742
O         27.05863        39.76437        -1.50530
O         50.34738        45.34817        -1.27898
O         55.96619        30.35587         1.42885
O         31.21246        24.68920        -0.62423
O         27.48981        31.54155         1.31851
O         46.69467        51.17922        -1.30996
H         47.49969        51.75039        -1.41335
O         29.93945        31.51180        -2.56186
H         30.75519        31.77011        -3.04737
O         44.11353        48.35407        -1.98403
H         44.34847        49.29774        -2.12158
O         38.23970        28.16688         1.91697
H         37.44658        28.60041         2.29810
O         41.80640        39.82436        -3.30709
H         41.45538        39.01184        -3.75900
O         56.37580        34.87557         1.52631
H         55.45653        34.73347         1.84052
O         50.28786        40.41344        -2.14231
H         51.11127        40.91875        -2.31760
O         31.73380        39.60098        -2.28199
H         30.90571        39.22986        -2.65303
O         42.30305        19.92266        -0.78157
H         42.19631        20.72404        -1.33754
O         49.07482        52.57126        -0.87242
H         49.90562        52.14721        -1.17625
O         40.70684        37.30891        -3.67498
H         39.85106        37.18664        -4.15503
O         35.19479        32.86775        -3.28517
H         34.32463        32.45963        -3.49817
O         25.44420        40.16345         1.82065
H         26.21271        40.67962         2.14096
O         35.72020        21.73153         4.73402
H         36.56525        21.44801         5.14393
O         42.54544        33.11178         0.68101
H         43.34189        32.64989         1.02047
O         24.21226        39.35634        -1.52185
H         23.40904        38.88265        -1.82145
O         35.53333        24.26919         3.69373
H         35.54890        23.48179         4.29809
O         32.85524        40.12613         1.16086
H         33.62700        40.61425         1.51555
O         36.52644        51.09229         1.95156
H         36.65100        50.21163         2.36447
O         41.72687        42.72248        -2.89571
H         41.80199        41.83142        -3.31795
O         24.06549        43.67421        -2.01300
H         24.79796        43.09234        -2.31008
O         32.54083        48.50223         1.54095
H         33.23370        48.96139         2.05996
O         52.42390        23.38380        -3.03110
H         53.23496        23.85555        -3.31695
O         56.88707        47.60735         3.05100
H         56.07986        47.38273         3.56976
O         40.39449        53.53676        -1.09169
H         41.26531        53.97573        -1.20135
O         47.34954        48.56969         2.30439
H         48.13091        48.92592         2.77914
O         46.59009        39.55293        -2.51851
H         47.53074        39.36693        -2.73245
O         55.13933        32.89852        -2.47656
H         54.29477        32.49531        -2.77099
O         48.78268        42.19457         1.72451
H         47.92620        42.59475         1.98711
O         43.83437        29.47113        -3.11776
H         43.72967        28.53272        -3.38375
O         24.61491        35.04045         2.68956
H         24.89091        35.91985         3.02604
O         37.18470        54.03026         2.42159
H         36.80079        53.12164         2.39487
O         44.91601        37.38034         0.99878
H         45.62315        36.81565         1.37900
O         31.87602        48.43020        -2.05594
H         31.13949        48.04246        -2.57282
O         27.52448        33.10860        -1.92678
H         27.39977        34.04117        -2.20058
O         51.13313        24.95968         0.90833
H         51.91914        25.37950         1.32171
O         36.76137        52.16796        -1.53147
H         37.03618        53.03443        -1.89732
O         28.23206        37.41936         1.91869
H         28.96987        36.80449         2.12268
O         40.27787        45.66162         1.46000
H         39.48209        45.12529         1.66517
O         57.43882        37.31354        -2.15348
H         58.17279        36.76766        -2.51072
H         23.13027        25.94828        -2.88815
H         22.72552        28.39974        -2.75142
H         21.95246        31.41958        -0.23062
H         22.07084        33.63975         0.85041
H         22.14389        35.49839         1.44118
H         22.08201        37.80586         0.72118
H         21.97318        39.74716         0.44648
H         22.05178        42.16580         0.38971
H         21.96276        44.02761        -0.11213
H         22.04411        46.42036         0.34855
H         26.32700        22.98350        -0.85547
H         24.43060        23.92772        -2.13510
H         25.36520        49.82495         0.28573
H         23.25893        48.55384         0.33814
H         27.20973        22.42279         1.22196
H         27.01386        50.77028         0.36713
H         29.33925        21.28822         1.62454
H         29.12208        51.98568         0.34743
H         33.17922        19.83502         3.36111
H         31.12508        20.54530         2.25215
H         32.83018        54.18297         0.03821
H         30.72803        52.96494        -0.13600
H         34.86992        19.13396         4.05666
H         34.60302        55.14996        -0.31780
H         36.86433        17.85788         3.66126
H         36.69089        56.25304         0.34553
H         40.64834        15.72542         3.70078
H         38.53298        16.96164         3.77891
H         40.16862        57.96143         2.72323
H         38.04175        56.82714         2.11193
H         43.03981        15.59690         3.08589
H         42.63570        57.94691         2.86800
H         45.03398        16.58971         2.03784
H         44.78169        56.80995         2.52463
H         48.47782        18.30942         0.06345
H         46.45494        17.24429         0.90812
H         48.55802        54.87119         1.72122
H         46.43474        55.97258         2.15649
H         50.14564        19.25520        -0.33267
H         50.26304        54.04366         1.28810
H         52.20829        20.41703        -0.89987
H         52.17770        52.73504         1.91890
H         55.91129        22.46973        -0.88690
H         53.90859        21.34944        -1.69917
H         55.95026        50.63304         1.81566
H         53.84899        51.80489         1.74035
H         57.58652        23.38397        -0.49730
H         57.49610        49.73678         1.02297
H         59.62836        24.64034        -0.03930
H         60.80314        26.71995         0.45107
H         60.82299        29.17973         0.56858
H         60.74175        31.08685         1.00806
H         60.83454        33.51287         0.75085
H         60.99823        35.35537        -0.47906
H         61.01501        37.80639        -0.36407
H         61.00233        39.70331        -0.37290
H         60.98463        42.11371        -0.11147
H         60.94743        44.03429        -0.04558
H         60.86304        46.48258         0.17697
H         59.51630        48.58391         0.23743
