         344
 CSIRO Nanostructure Databank - Neutral Graphene Oxide Data Set
C          1.30104         3.35706        -1.07153
C          0.08225         4.03039        -1.11193
C          1.21500         6.18454        -0.89461
C          0.03053         5.42376        -1.03165
C          1.19117         7.65332        -0.82072
C         -0.03968         8.40801        -1.05700
C          1.01904        10.52775        -0.29644
C         -0.13008         9.74747        -0.89908
C          1.06127        12.02860        -0.63039
C         -0.16660        12.79767        -0.62189
C          1.06953        14.92135        -0.56401
C         -0.15357        14.16221        -0.50528
C          1.14312        16.27287        -0.25358
C         -0.03232        17.05979         0.11176
C          1.46380        18.74433         1.12168
C          0.09423        18.26373         0.70546
C          1.53813        20.20534         1.52743
C          0.55156        20.64679         2.40178
C          1.84238        22.62509         2.87136
C          0.71292        21.85031         3.09794
C          1.83167        24.91085         3.07947
C          0.69268        25.64204         3.40161
C          1.57497        27.52824         2.18753
C          0.51788        26.92913         2.86874
C          1.46150        28.87775         1.63854
C          3.78047         3.41024        -0.87321
C          2.50820         4.08389        -0.95322
C          3.74658         6.21538        -0.57638
C          2.44705         5.49990        -0.85450
C          3.65949         7.72202        -0.69993
C          2.36606         8.36343        -0.64418
C          3.53642        10.57459        -0.17013
C          2.33552         9.87289        -0.77924
C          3.53487        12.04972        -0.37475
C          2.25609        12.70224        -0.73004
C          3.58409        14.86509        -0.84486
C          2.27352        14.17002        -1.10677
C          3.58440        16.36367        -1.04518
C          2.39118        17.02314        -0.37391
C          3.66449        19.19013        -0.23251
C          2.48611        18.30083         0.11189
C          3.80429        20.46847         0.56784
C          2.70412        21.00761         1.29759
C          3.97095        23.15698         1.58231
C          2.83627        22.30425         1.90813
C          3.98456        24.60889         1.73326
C          2.86031        25.39332         2.22390
C          3.92514        27.48623         1.45890
C          2.78222        26.79051         1.95359
C          3.90809        28.99135         1.61304
C          2.55784        29.56523         1.26209
C          6.23717         3.49196        -0.78094
C          4.98807         4.10409        -0.97290
C          6.21252         6.32689        -1.23114
C          4.88952         5.56469        -1.38284
C          6.13650         7.83120        -0.90829
C          4.82104         8.45550        -0.68422
C          6.06933        10.63905        -0.31444
C          4.84275         9.81488        -0.02119
C          6.02325        12.04182        -0.40215
C          4.81550        12.75468        -0.51678
C          6.05845        14.87458        -0.91268
C          4.79327        14.18045        -0.74605
C          6.12225        16.26078        -0.83638
C          4.86618        16.95446        -0.48839
C          6.22058        19.10443        -0.24353
C          4.93743        18.38631        -0.13193
C          6.24020        20.47918         0.04721
C          5.02940        21.14708         0.53756
C          6.29786        23.25636         0.70058
C          5.08630        22.52406         0.95704
C          6.30092        24.66318         0.81776
C          5.08836        25.34218         1.20498
C          6.16636        27.49870         0.38080
C          5.05565        26.77633         1.10610
C          6.21237        28.99095         0.63638
C          5.08661        29.67998         1.00501
C          8.71309         3.54746        -0.53457
C          7.46440         4.22508        -0.74333
C          8.72728         6.43838        -0.92405
C          7.44828         5.62329        -0.92273
C          8.55042         7.73540        -0.10804
C          7.32594         8.54012        -0.44052
C          8.56756        10.66428        -0.25352
C          7.30902         9.92817        -0.27407
C          8.57842        12.05521        -0.38724
C          7.29943        12.84385        -0.25911
C          8.58351        14.82665        -1.09731
C          7.28942        14.04865        -1.18921
C          8.52343        16.26611        -1.43489
C          7.32159        17.00214        -0.97064
C          8.59917        19.13393        -0.86331
C          7.38178        18.40284        -0.69287
C          8.66196        20.48984        -0.46185
C          7.48203        21.17264        -0.00984
C          8.72216        23.28543         0.28617
C          7.50407        22.57549         0.31204
C          8.75042        24.69894         0.42016
C          7.51630        25.39935         0.58144
C          8.68457        27.54982         0.33054
C          7.50362        26.81941         0.51403
C          8.65346        29.00416         0.24181
C          7.43150        29.68344         0.38297
C         11.16035         3.57989        -0.12899
C          9.91498         4.23697        -0.32637
C         10.99472         6.39925         0.10820
C          9.91160         5.69409        -0.33922
C         11.02448         7.85243         0.03897
C          9.82193         8.54403        -0.13596
C         11.04137        10.67325        -0.21252
C          9.80796         9.95417        -0.21316
C         11.04406        12.08779        -0.41527
C          9.79731        12.76230        -0.54674
C         11.06903        14.83200        -1.19843
C          9.76956        14.18174        -0.86462
C         11.09114        16.23893        -1.72694
C          9.78159        17.01168        -1.73835
C         11.11269        19.21186        -1.44893
C          9.77269        18.50143        -1.51319
C         11.12723        20.55692        -0.82221
C          9.94258        21.16536        -0.41810
C         11.28108        23.31452         0.06018
C          9.97880        22.52641         0.14988
C         11.21413        24.78477         0.03894
C          9.97728        25.44360         0.25788
C         11.13437        27.61495        -0.00201
C          9.94019        26.87115         0.21851
C         11.09887        29.05624        -0.05382
C          9.85740        29.71869         0.07416
C         13.56242         3.67374         0.40429
C         12.31217         4.28009         0.29424
C         13.40759         6.49104         0.83945
C         12.12559         5.69665         0.80595
C         13.45030         7.84072         0.55274
C         12.24480         8.56112         0.18438
C         13.48429        10.70784         0.13601
C         12.25904         9.96904         0.01632
C         13.49451        12.11300        -0.07937
C         12.28863        12.80773        -0.40814
C         13.50133        14.96184        -0.58187
C         12.32550        14.20848        -0.70556
C         13.57200        16.37400        -0.96495
C         12.44188        16.97399        -1.84789
C         13.63408        19.21633        -1.85702
C         12.35643        18.46297        -1.62344
C         13.48846        20.69425        -1.53648
C         12.36969        21.28712        -0.88553
C         13.60344        23.43905        -0.81224
C         12.43552        22.66471        -0.57302
C         13.61873        24.84274        -0.56465
C         12.39330        25.51472        -0.23101
C         13.56348        27.67552        -0.46213
C         12.36445        26.94258        -0.21895
C         13.52363        29.10635        -0.46328
C         12.29827        29.77134        -0.26176
C         15.90735         3.70109         1.12857
C         14.71202         4.34084         0.94363
C         15.88634         6.52601         1.30935
C         14.58301         5.77567         1.44604
C         15.88194         7.93814         1.04671
C         14.68010         8.60550         0.69936
C         15.87477        10.76886         0.73775
C         14.68108        10.01223         0.49369
C         15.84502        12.19206         0.58371
C         14.71041        12.85595         0.11335
C         15.87057        15.03788         0.07969
C         14.71133        14.31044        -0.09969
C         15.86963        16.53969         0.06409
C         14.71061        17.11385        -0.74850
C         16.18272        19.15097        -1.20750
C         14.76604        18.62130        -0.93045
C         16.40269        20.43080        -1.72346
C         14.55128        21.51352        -1.85978
C         16.04990        23.46846        -1.36611
C         14.76835        22.82216        -1.36117
C         16.04422        24.87919        -1.11271
C         14.81690        25.56322        -0.79768
C         15.98146        27.73825        -0.93917
C         14.79197        26.99478        -0.71421
C         15.91967        29.16814        -0.96646
C         14.72846        29.82495        -0.72829
C         18.35002         3.69625         1.74542
C         17.01786         4.37950         1.90202
C         18.32043         6.55981         1.54390
C         17.06731         5.85558         1.55790
C         18.33828         7.97471         1.41470
C         17.09418         8.68124         1.18306
C         18.28875        10.84517         1.54501
C         17.06506        10.08710         1.09239
C         18.31318        12.27396         1.10603
C         17.01333        13.01181         1.08191
C         18.31397        15.15115         0.75760
C         17.17127        14.29898         0.26850
C         18.39648        16.45121         0.24602
C         17.24082        17.14028        -0.21699
C         18.56059        19.22953        -0.59435
C         17.32996        18.50281        -0.64536
C         18.59611        20.64292        -0.77740
C         17.43964        21.29791        -1.29333
C         18.52526        23.46940        -1.15730
C         17.33344        22.74119        -1.36221
C         18.54463        24.94272        -1.51179
C         17.24628        25.64562        -1.19758
C         18.46440        27.81323        -1.14596
C         17.22439        27.04314        -1.12113
C         18.43166        29.22413        -1.16746
C         17.13489        29.96701        -1.36673
C         19.50725         4.38079         1.67574
C         20.75385         6.53587         1.64596
C         19.54311         5.83694         1.64388
C         20.76817         7.93445         1.54733
C         19.58120         8.66230         1.43783
C         20.71471        10.92048         1.85549
C         19.60617        10.15151         1.16864
C         20.69110        12.25926         1.82685
C         19.62255        13.00694         1.04786
C         20.73207        15.26025         1.45830
C         19.44225        14.49238         1.51234
C         20.86220        16.44021         0.83871
C         19.74193        17.07163         0.11121
C         20.99919        19.35683        -0.00411
C         19.82453        18.53447        -0.31948
C         20.95576        20.71378        -0.08594
C         19.77528        21.40761        -0.53186
C         20.92210        23.59928        -0.59543
C         19.74743        22.81524        -0.78544
C         20.90542        24.99013        -0.67389
C         19.75010        25.69950        -1.00719
C         20.89867        27.91578        -0.90996
C         19.71804        27.14185        -1.02442
C         20.84722        29.30372        -0.93078
C         19.61814        29.95969        -1.06674
O         15.54860        20.98085        -2.67330
O          3.32135        11.39484         1.01926
O         10.25155        19.21601        -2.69558
O          4.84160        17.36205         0.92738
O         10.85995        22.68416         1.32106
O          8.90112        16.60469        -2.83445
O         20.09034        17.41731        -1.26555
O          6.34853         7.32599        -2.31707
O          2.01322        23.70012         3.74910
O         11.07610        15.11789        -2.66254
O         16.66117         4.25652         3.31529
H         15.80225         4.74031         3.43196
O         11.69762         5.54879         2.21962
H         10.81986         5.10861         2.21081
O          1.80165        17.99659         2.34785
H          2.77777        17.88887         2.37202
O         19.08105        14.40899         2.93858
H         19.06042        15.32315         3.29317
O          4.07809         5.98413         0.82643
H          3.41495         6.44953         1.37833
O          7.28988        13.38757         1.09485
H          7.20814        12.63922         1.72215
O         17.15955        31.23498        -0.70032
H         17.23449        31.07230         0.26205
O          7.20612        13.55142        -2.55023
H          7.38963        14.29917        -3.15845
O         18.66403        24.98252        -2.99101
H         19.48079        24.49297        -3.22701
O          4.06924        29.22551         3.06397
H          3.28099        28.84173         3.50543
O          8.33750         7.29257         1.27574
H          8.13264         8.08377         1.81769
O          2.11067        14.22170        -2.58511
H          1.27170        13.75709        -2.79566
O          4.96209         9.46712         1.40563
H          4.55184        10.22140         1.89345
O         14.45611        19.16514         0.38775
H         14.95358        18.62205         1.05167
O         12.90708        16.72601        -3.21040
H         12.44896        15.90174        -3.51284
O         18.22168        10.88753         3.01031
H         17.46856        11.48033         3.24040
O          4.52454         5.57258        -2.77650
H          4.97289         6.34787        -3.18831
O         14.02669        19.09087        -3.23394
H         13.68336        18.23458        -3.58695
O          0.87299        10.39123         1.13222
H          1.61939        10.89247         1.54205
O         17.54841        13.83202        -1.07024
H         17.95453        14.58150        -1.55562
O          5.81782        27.36816        -1.04659
H          6.53064        27.80357        -1.56083
O         19.75091        10.31159        -0.27817
H         20.48568         9.73309        -0.57256
O          3.57180        16.61743        -2.47289
H          2.98860        15.93574        -2.88368
O          9.03784         6.76490        -2.29764
H          8.20729         7.11619        -2.70212
O          3.52663        19.58823        -1.62544
H          2.68471        20.07878        -1.72356
O         16.67149        13.32818         2.47557
H         17.46922        13.77034         2.87586
O         20.06364        13.09397        -0.33529
H         19.99280        12.17799        -0.70193
O          2.45522        10.14082        -2.20798
H          1.76296         9.62094        -2.66918
O         15.58243        16.94758         1.48075
H         14.85257        16.37431         1.80234
O         14.32503         5.68628         2.89443
H         13.35792         5.49881         2.99849
H          1.33049         2.26017        -1.13798
H         -0.85287         3.46059        -1.20628
H         -0.94821         5.92105        -1.05867
H         -0.92147         7.85834        -1.41738
H         -1.08906        10.25128        -1.09238
H         -1.12468        12.26390        -0.55124
H         -1.10297        14.68605        -0.32290
H         -1.03223        16.67042        -0.12971
H         -0.79885        18.85468         0.95600
H         -0.31270        20.00742         2.62542
H         -0.00692        22.15543         3.86765
H         -0.06153        25.20135         4.06587
H         -0.41139        27.48613         3.05231
H          0.45278        29.30132         1.51786
H          3.78958         2.32291        -0.69950
H          2.48312        30.57759         0.83951
H          6.27096         2.40956        -0.58142
H          5.13588        30.77616         1.10575
H          8.71055         2.44774        -0.50024
H          7.43337        30.78353         0.42387
H         11.23336         2.50030        -0.33224
H          9.82545        30.81735         0.02573
H         13.67138         2.61864         0.10516
H         12.26977        30.87071        -0.29409
H         16.02075         2.64481         0.83640
H         14.70436        30.92423        -0.76104
H         18.36033         2.59598         1.77635
H         17.04087        30.19754        -2.46700
H         20.46830         3.84583         1.62517
H         21.70269         5.98476         1.71466
H         21.73535         8.45848         1.53718
H         21.50191        10.38637         2.40900
H         21.48002        12.83297         2.33585
H         21.59938        14.82486         1.97675
H         21.84523        16.93190         0.80490
H         21.94154        18.85969         0.26376
H         21.86537        21.28118         0.15260
H         21.86464        23.11144        -0.31764
H         21.82765        25.52978        -0.41646
H         21.87615        27.42226        -0.82611
H         21.77475        29.88775        -0.85225
H         19.57062        31.05739        -1.08893
