         720
 CSIRO Nanostructure Databank - Neutral Graphene Oxide Data Set
C         24.29480        28.04989        -4.92498
C         24.11758        29.32849        -4.41754
C         23.67561        32.01863        -3.20635
C         23.54076        33.30756        -2.83399
C         23.37845        36.16086        -2.02170
C         23.25961        37.52896        -1.65392
C         23.09509        40.36336        -1.07855
C         23.04332        41.73312        -0.87472
C         22.92690        44.62744        -0.54614
C         22.87544        45.98508        -0.48597
C         26.94955        25.38272        -5.00985
C         25.77087        26.08262        -5.30579
C         26.69298        28.16944        -4.36203
C         25.55468        27.40417        -4.87954
C         26.43403        29.40624        -3.60525
C         25.14865        30.01838        -3.71601
C         25.95712        31.86542        -2.31377
C         24.94312        31.30015        -3.09177
C         25.67807        33.15626        -1.61767
C         24.73831        34.09329        -2.34944
C         25.31087        35.88023        -0.54211
C         24.40403        35.35994        -1.58132
C         25.30734        37.39942        -0.29335
C         24.24681        38.18537        -0.94206
C         25.34947        40.26232        -0.10415
C         24.22839        39.61489        -0.72166
C         25.32925        41.70153         0.02420
C         24.15230        42.43124        -0.36389
C         25.29807        44.53664         0.10826
C         24.11224        43.86655        -0.21398
C         25.28613        45.98536         0.33764
C         23.98109        46.75945         0.07651
C         25.28839        48.84127         0.00451
C         24.10656        48.20173        -0.17702
C         29.07386        23.74403        -3.81416
C         29.09798        25.16772        -3.73811
C         28.02390        25.95158        -4.30362
C         28.93002        27.97875        -3.11203
C         28.01428        27.41251        -4.11296
C         28.63098        29.16678        -2.48428
C         27.42050        29.92211        -2.74796
C         28.15535        31.72571        -1.19628
C         27.18172        31.17083        -2.05751
C         27.94668        32.98164        -0.44190
C         26.64873        33.70086        -0.62326
C         27.78594        35.90339         0.28277
C         26.56243        35.13357        -0.16357
C         27.76111        37.39129         0.34393
C         26.56203        38.09172         0.11017
C         27.62822        40.17307         0.93931
C         26.50444        39.51132         0.25269
C         27.61270        41.72015         1.07344
C         26.48668        42.41133         0.43188
C         27.74612        44.55741         0.44117
C         26.52595        43.83264         0.31146
C         27.74989        45.96959         0.31805
C         26.55978        46.70938         0.26861
C         27.76355        48.84877         0.19716
C         26.54445        48.14460         0.21517
C         27.83213        50.25613         0.31658
C         31.32083        23.55623        -2.83027
C         30.11811        22.98331        -3.34948
C         31.36776        25.01327        -2.76213
C         30.22997        25.77571        -3.11638
C         31.22678        27.92999        -1.98632
C         30.29470        27.30193        -3.07627
C         30.58533        28.76973        -0.88403
C         29.42165        29.58673        -1.29905
C         30.49384        31.66979        -0.45815
C         29.36831        31.01491        -0.91506
C         30.51690        33.17450        -0.38576
C         29.16477        33.74444         0.03336
C         30.22351        35.88365         0.71322
C         29.10358        35.21679         0.29355
C         30.22370        37.33814         0.93626
C         28.97154        38.09448         0.71211
C         30.11086        40.20452         1.46647
C         28.90457        39.45304         1.03013
C         30.14227        41.71955         1.57347
C         28.84722        42.55339         1.51080
C         30.19854        44.50068         0.64198
C         28.99538        43.86303         0.75129
C         30.24279        45.84939        -0.06769
C         29.06886        46.70334         0.46108
C         30.31251        48.82805        -0.01475
C         29.01233        48.08302        -0.19539
C         30.27927        50.21438         0.09124
C         29.03839        50.91484         0.24452
C         32.92458        20.58534        -1.13528
C         32.05218        21.27910        -1.91749
C         33.66911        23.03689        -2.05221
C         32.30745        22.65124        -2.30468
C         33.73712        25.16732        -1.91493
C         32.46973        25.72124        -2.09890
C         33.17608        27.47703        -0.53586
C         32.24950        26.97102        -1.44484
C         32.83289        28.61768         0.38994
C         31.61636        29.42652        -0.00448
C         33.00016        31.63166         0.11043
C         31.66284        30.91741         0.04576
C         32.82038        33.03786         0.62924
C         31.65326        33.71940         0.45008
C         32.65939        35.80808         1.49850
C         31.45750        35.09086         0.99784
C         32.59652        37.28918         1.73430
C         31.35932        38.00889         1.35490
C         32.60682        40.26618         1.78463
C         31.43000        39.51850         1.17040
C         32.62367        41.73613         1.50039
C         31.45473        42.43251         1.39353
C         32.72157        44.56386         0.73604
C         31.44023        43.96509         1.31354
C         32.74964        45.87609         0.22618
C         31.54993        46.61879         0.05919
C         32.76965        48.76551        -0.02153
C         31.55655        48.06505        -0.03807
C         32.84739        50.23043        -0.11299
C         31.51905        51.01947         0.00437
C         32.81000        53.02091         0.63355
C         31.60269        52.37009         0.54575
C         35.31606        18.94941        -0.33536
C         35.33020        20.35857        -0.20127
C         34.08407        21.23083        -0.40433
C         35.83381        23.21372        -0.82512
C         34.50369        22.51208        -1.10591
C         35.71202        24.70447        -0.44987
C         34.62015        25.53253        -0.86855
C         35.28340        27.29673         0.73518
C         34.34447        26.75701        -0.19870
C         35.12356        28.64904         1.22683
C         34.04495        29.43487         0.80074
C         35.28205        31.53471         1.23484
C         34.10788        30.85878         0.83220
C         35.34751        32.98461         1.24188
C         34.09013        33.73871         0.95261
C         35.19891        35.87783         1.85112
C         34.00583        35.18073         1.28935
C         35.17079        37.32717         1.62184
C         33.90894        38.03417         1.88714
C         35.07602        40.22467         1.21048
C         33.90862        39.54383         1.90070
C         35.21710        41.69060         1.49996
C         33.93762        42.43482         1.59389
C         35.30828        44.31575         0.58037
C         33.95998        43.90492         1.16017
C         35.35101        45.80455         0.25441
C         34.07080        46.54992        -0.03169
C         35.17397        48.75388         0.68101
C         34.10160        48.08615        -0.18217
C         35.23939        50.23985         0.66918
C         34.07910        50.94767         0.29164
C         35.30702        53.13383         0.73851
C         34.04659        52.34186         0.47647
C         35.41371        54.24551        -0.27952
C         37.70244        18.81253         0.17556
C         36.46321        18.19851        -0.14374
C         37.72362        20.22905         0.34528
C         36.52855        20.98532         0.16030
C         37.88775        23.07376         0.61731
C         36.53808        22.48632         0.34038
C         38.01007        24.57850         0.53965
C         36.65921        25.26068         0.41461
C         37.42068        27.07962         1.92363
C         36.45512        26.55445         0.98349
C         37.27922        28.35497         2.40992
C         36.18847        29.24268         2.02629
C         37.76748        31.40720         1.88334
C         36.37762        30.80524         1.93337
C         37.80107        32.98271         1.64977
C         36.49916        33.67448         1.58783
C         37.80866        35.90060         1.76447
C         36.49335        35.12891         1.92396
C         37.69545        37.37369         2.18114
C         36.41517        38.07451         1.82243
C         37.72197        40.16885         1.14567
C         36.40885        39.46925         1.28561
C         37.71944        41.64383         1.30660
C         36.45977        42.32129         1.44710
C         37.79163        44.45896         1.13050
C         36.46096        43.83906         1.48361
C         37.76479        45.90225         0.97256
C         36.58763        46.54254         0.60380
C         37.67116        48.75634         1.08817
C         36.45408        47.98671         0.86020
C         37.54489        50.06514         1.46434
C         36.43669        50.92931         1.08557
C         37.85065        53.13301         0.78043
C         36.58227        52.31951         0.87420
C         37.83619        54.40588         0.01708
C         36.58886        54.85558        -0.55030
C         40.07872        15.91067         0.59772
C         38.93642        16.62996         0.42984
C         40.16110        18.76961         0.32300
C         38.93609        18.06820         0.26939
C         40.16782        20.16963         0.58057
C         38.96289        20.87868         0.66983
C         40.18320        22.95737         1.51860
C         38.97045        22.31634         0.92281
C         40.17327        24.39280         1.93498
C         38.89355        25.11300         1.64090
C         40.47278        27.31655         2.82765
C         38.54101        26.23744         2.30053
C         40.43121        28.76807         2.71140
C         39.22911        29.48733         2.81447
C         40.25115        31.53938         2.00568
C         39.06389        30.80865         2.30431
C         40.24263        32.98840         1.93691
C         39.03518        33.69924         1.99030
C         40.29512        35.91247         2.36483
C         38.95824        35.14818         2.48246
C         40.28700        37.36384         2.05462
C         39.00787        38.18680         2.26911
C         40.24388        40.19302         1.45525
C         39.01590        39.34237         1.25158
C         40.19501        41.60358         1.45176
C         38.96100        42.32855         1.40177
C         40.18515        44.60008         1.79933
C         38.96913        43.78574         1.36017
C         40.23374        45.99500         1.21544
C         39.01864        46.63492         1.06556
C         40.24310        48.80918         0.53378
C         38.96083        48.08357         0.78797
C         40.33565        50.29374         0.53357
C         39.48789        51.11143         1.19004
C         40.40351        53.14762         0.17501
C         39.30316        52.53353         0.90825
C         40.31753        54.50284        -0.17652
C         39.02264        55.14210        -0.22273
C         40.15188        57.17783        -1.01778
C         39.00493        56.51165        -0.67030
C         42.62620        15.86557         0.81547
C         41.39281        16.51347         0.34060
C         42.74275        18.71617         0.34743
C         41.42747        18.02789         0.13294
C         42.75659        20.18797         0.60313
C         41.45078        20.92863         0.62514
C         42.74501        22.99461         1.52017
C         41.47170        22.33003         1.13558
C         42.68545        24.44005         1.77564
C         41.48480        25.13113         2.03768
C         42.85314        27.29224         2.42257
C         41.52949        26.55025         2.34425
C         42.78686        28.74103         2.00056
C         41.58072        29.45254         2.19431
C         42.70967        31.55228         1.61306
C         41.51158        30.85559         1.95228
C         42.69528        32.99355         1.56100
C         41.51160        33.67531         1.85571
C         42.75679        35.85633         1.59982
C         41.56532        35.13532         2.05896
C         42.80034        37.33275         1.91677
C         41.45742        38.05048         1.74666
C         42.65941        40.17975         0.92498
C         41.45193        39.47287         1.50798
C         42.73565        41.66093         1.25169
C         41.48572        42.32816         1.62909
C         42.75095        44.54865         1.38215
C         41.50306        43.84567         1.73599
C         42.73770        45.97729         1.12076
C         41.49976        46.68684         1.02647
C         42.72155        48.76128         0.41015
C         41.51947        48.06720         0.66569
C         42.73277        50.15433        -0.02539
C         41.42693        50.86712        -0.32182
C         42.69651        53.00340        -0.62280
C         41.53927        52.37008        -0.18958
C         42.71042        54.42141        -0.78124
C         41.48877        55.15029        -0.66624
C         42.61874        57.15974        -1.45257
C         41.43028        56.52148        -1.04503
C         43.81554        16.54654         0.95277
C         45.18263        18.66289         0.84024
C         43.93505        17.94443         0.74006
C         45.21215        20.07512         1.07948
C         43.89707        20.74862         1.43940
C         45.21793        22.95625         1.18453
C         43.90922        22.26828         1.43369
C         45.20271        24.37718         1.70247
C         43.94401        25.15636         1.74671
C         45.18924        27.27915         1.51620
C         44.00515        26.53995         1.84049
C         45.17996        28.67644         1.39947
C         43.94848        29.42040         1.59656
C         45.12770        31.55326         1.06192
C         43.92054        30.84023         1.42598
C         45.06076        32.99159         0.86421
C         43.90458        33.70083         1.17412
C         45.08324        35.89678         0.81037
C         43.88341        35.17148         1.14161
C         45.09880        37.34082         0.89077
C         43.95934        38.03853         1.27337
C         45.11968        40.22657         0.62952
C         43.98209        39.52647         1.40757
C         45.20742        41.67611         1.05265
C         43.93947        42.36755         1.27221
C         45.22354        44.54942         1.39052
C         43.93416        43.81674         1.35394
C         45.22442        45.97846         0.98768
C         43.96285        46.66214         0.87758
C         45.18081        48.70422         0.21912
C         43.96439        48.05324         0.52819
C         45.14781        50.05042        -0.36445
C         43.89192        50.79983        -0.36832
C         45.19491        52.96781        -0.86199
C         43.89729        52.17732        -1.02335
C         45.17454        54.37532        -1.05444
C         43.91310        55.10435        -1.13636
C         43.83281        56.47206        -1.46604
C         47.61789        18.67128         0.71023
C         46.41708        17.98487         0.68234
C         47.66207        20.06494         0.94612
C         46.43698        20.75137         1.15590
C         47.72301        22.95194         1.15789
C         46.48077        22.18878         1.63209
C         47.70936        24.32547         1.15347
C         46.50624        25.09356         1.58064
C         47.69155        27.29220         0.99784
C         46.40691        26.53000         1.19930
C         47.62953        28.74202         1.09185
C         46.39643        29.40915         1.13784
C         47.58142        31.52529         0.56921
C         46.33047        30.83817         0.96373
C         47.52212        32.95992         0.17993
C         46.17725        33.70833         0.10862
C         47.46436        35.87329         0.23506
C         46.28209        35.18996         0.44217
C         47.63855        37.30328         0.66793
C         46.34468        38.07512         0.71670
C         47.63286        40.20509         0.64258
C         46.40524        39.45356         0.74504
C         47.66469        41.57245         0.82051
C         46.43567        42.30491         1.07917
C         47.76760        44.47175         0.98294
C         46.52454        43.75976         1.33971
C         47.72018        45.94780         0.99067
C         46.42407        46.63564         0.74529
C         47.63985        48.72572         0.15781
C         46.43286        48.02385         0.33535
C         47.64882        50.18483         0.03574
C         46.43789        50.83995        -0.51341
C         47.67529        53.00943        -0.72901
C         46.42295        52.30897        -0.66478
C         47.61774        54.41379        -0.94667
C         46.41169        55.06911        -1.08269
C         50.16116        20.10739         0.87835
C         48.93339        20.79248         0.92677
C         50.18063        22.89833         0.65315
C         48.95036        22.21836         0.88693
C         50.19790        24.37612         0.50298
C         48.89614        25.12687         0.77269
C         50.19669        27.30538         0.98431
C         48.95741        26.53906         1.37051
C         50.15643        28.65916         0.88122
C         48.91875        29.44357         1.14494
C         50.15978        31.59709         0.46257
C         48.91262        30.93202         0.94241
C         50.11390        33.01461         0.09374
C         48.81237        33.70894         0.29190
C         49.92475        35.85447        -0.52502
C         48.77629        35.17502         0.16143
C         49.86211        37.33300        -0.68619
C         48.62101        38.10637        -0.22017
C         49.97826        40.18035        -0.32189
C         48.92071        39.43836         0.45822
C         49.93102        41.66283        -0.25277
C         49.02585        42.27636         0.85235
C         50.13137        44.50291         0.31751
C         48.93708        43.79255         0.67310
C         50.21736        45.89908         0.39247
C         49.00483        46.68117         0.73216
C         50.19366        48.82379         0.09794
C         48.93403        47.99611        -0.01145
C         50.21805        50.15045        -0.18636
C         48.96822        50.95065        -0.12534
C         50.19395        52.93082        -0.92029
C         48.93099        52.31307        -0.65419
C         51.36992        20.78821         0.75343
C         52.68469        22.92669         0.26096
C         51.40131        22.18404         0.61985
C         52.67796        24.34459         0.80792
C         51.45088        25.09496         0.72802
C         52.72485        27.24542         0.54640
C         51.50155        26.54847         1.11922
C         52.61627        28.67673         0.14153
C         51.32472        29.40392         0.35331
C         52.52397        31.56642        -0.29548
C         51.31375        30.88393         0.31824
C         52.57465        33.05355         0.11736
C         51.24872        33.71524        -0.19280
C         52.48814        35.97062        -0.44570
C         51.25211        35.11405        -0.76977
C         52.42305        37.33936        -0.58806
C         51.16081        38.06426        -1.05599
C         52.42250        40.30432        -0.64104
C         51.11913        39.53449        -0.67547
C         52.29077        41.68157        -1.17856
C         51.12524        42.42248        -0.69256
C         52.40753        44.54885        -0.77897
C         51.39785        43.73866         0.02144
C         52.55694        45.98478        -0.41616
C         51.41296        46.61524         0.12820
C         52.71087        48.79594         0.10352
C         51.45778        48.07027         0.51015
C         52.68573        50.29035         0.30127
C         51.51185        50.80487        -0.63883
C         51.39531        52.28455        -0.80940
C         55.16310        22.93226         0.50455
C         53.99726        22.24965         0.58748
C         55.21370        24.36996         0.25786
C         54.02253        25.12194         0.70974
C         55.22355        27.27223         0.18146
C         53.90512        26.58039         0.46025
C         55.08194        28.70032        -0.42002
C         53.86668        29.47376         0.05636
C         55.09700        31.60669        -0.03329
C         53.82881        30.82919        -0.05288
C         55.08274        33.09200        -0.09280
C         53.78570        33.76684        -0.53767
C         54.96843        35.95790        -0.51187
C         53.77810        35.28276        -0.36161
C         55.00631        37.42546        -0.62497
C         53.65173        38.15735        -0.60874
C         54.78218        40.23847        -1.45689
C         53.60906        39.53503        -1.10736
C         54.76494        41.62713        -1.64054
C         53.44973        42.34513        -1.84743
C         54.75845        44.59602        -1.87568
C         53.47227        43.85768        -1.58589
C         54.81724        46.06860        -1.49011
C         53.69383        46.71480        -0.77616
C         55.02235        48.84150        -0.74496
C         53.79326        48.13171        -0.47199
C         55.05595        50.25234        -0.49701
C         53.98803        50.94366        -0.00929
C         57.47428        24.35413        -0.83026
C         56.29998        25.01318        -0.32556
C         57.41880        27.19646        -1.01413
C         56.12127        26.45729        -0.75849
C         57.66259        28.66127        -0.66954
C         56.41229        29.41114        -0.21536
C         57.53891        31.61981        -0.87063
C         56.40408        30.89545        -0.22930
C         57.55315        33.03543        -0.87242
C         56.38851        33.80253        -0.33696
C         57.43661        35.97932        -1.17786
C         56.29662        35.28509        -0.56411
C         57.32530        37.33489        -1.53005
C         56.12943        38.06031        -1.30430
C         57.28955        40.21137        -1.84471
C         55.99361        39.43874        -1.91028
C         57.27720        41.57871        -1.86211
C         55.99441        42.32406        -2.18225
C         57.22363        44.52747        -1.90070
C         56.03770        43.83433        -1.91865
C         57.28271        45.98172        -1.75444
C         56.13347        46.72523        -1.42394
C         57.46207        48.76606        -1.29844
C         56.20353        48.12395        -1.15253
C         58.47725        25.05195        -1.45726
C         59.65639        27.24858        -1.99526
C         58.49276        26.49892        -1.50719
C         59.63077        28.58972        -2.15243
C         58.37466        29.38622        -1.82920
C         59.62164        31.61130        -2.08391
C         58.55909        30.88560        -1.53023
C         59.69649        33.00267        -1.97121
C         58.65667        33.74711        -1.39696
C         59.76777        35.95112        -2.05703
C         58.77345        35.26017        -1.16192
C         59.65840        37.25747        -2.37661
C         58.50441        38.05706        -2.01248
C         59.74001        40.19811        -2.24625
C         58.52031        39.44915        -2.01635
C         59.77459        41.54587        -2.14602
C         58.56185        42.31475        -1.80460
C         59.73517        44.58073        -2.27718
C         58.53817        43.81842        -1.86122
C         59.71717        45.93229        -2.27530
C         58.52600        46.66137        -1.89716
C         58.58438        48.05360        -1.68651
O         38.61858        50.62106         2.16243
O         46.95466        26.74576        -0.14202
O         58.72768        43.12238        -0.56253
O         53.50755        24.63240         1.99511
O         37.95758        32.00955         0.57042
O         29.30982        28.51346        -0.25381
O         39.33940        26.70489         3.35329
O         32.07864        28.87702        -2.62300
O         55.12552        32.44743         1.21121
O         37.01962        39.63227        -0.04290
O         35.73256        35.40203         3.14231
O         54.51298        38.10154         0.59549
O         24.70152        36.44886         0.64365
O         34.14995        24.14087        -2.78269
O         49.70121        42.01009         2.06117
O         56.66374        30.12339         1.02795
O         38.68544        53.27896         1.98522
O         24.38954        46.38400         1.42871
O         33.24414        40.04671         3.08536
O         31.80453        35.09944         2.44046
O         49.01255        30.39449         2.28811
O         46.01345        24.70005         2.90532
O         48.50798        46.60657         2.07779
O         32.19649        50.82441        -1.27942
O         56.70551        34.70248         0.77177
O         27.19306        40.85908         2.17187
O         25.45313        32.95952        -0.19233
O         47.60459        31.93315        -0.86113
O         34.85611        45.97171        -1.13992
O         27.81629        28.22745        -5.30256
O         51.69881        28.86933        -0.99723
O         34.28327        34.79826        -0.10041
O         45.97385        44.23766         2.61500
O         49.89996        42.35083        -1.53588
O         41.46868        17.12287        -1.00281
O         39.40864        48.35704        -0.60977
O         40.03642        23.29800         2.93553
O         54.55828        45.62165        -2.88914
O         33.93179        43.52456         2.57196
O         38.13112        28.85020         3.40237
O         36.83853        37.81380         3.26326
O         26.86508        35.26634         1.25043
O         49.35467        24.94944        -0.57974
O         45.88835        50.13239        -1.67678
O         33.15303        37.54740         3.06309
O         41.63736        43.01027         2.93773
O         49.43608        36.44068        -1.77814
O         35.44081        48.16955         1.98035
O         35.87170        30.16558         3.12178
O         52.29027        44.42823        -2.23786
O         48.26765        50.85614         1.17964
O         31.18260        30.13443         1.19919
O         44.91113        40.18330        -0.77150
O         43.09752        19.70857        -0.71107
O         48.97925        34.56306         1.49237
O         54.84118        28.65162        -1.80222
O         41.18050        35.52603         3.48507
O         28.42533        32.90885         0.94995
O         41.47387        22.05901        -0.32074
O         30.09243        40.85378         2.76628
O         47.93400        38.47907        -1.43000
H         47.83501        37.67142        -1.98150
O         30.86782        27.64022        -4.35890
H         31.55857        28.33545        -4.13813
O         52.65829        33.16277         1.54991
H         53.55667        32.85814         1.83711
O         46.50392        22.10099         3.07622
H         46.51203        23.02926         3.42336
O         28.56483        42.97614         2.86110
H         28.55600        42.16158         3.41429
O         39.90467        44.83640         3.21830
H         40.37028        44.12013         3.71553
O         31.65597        39.70463        -0.26971
H         32.62947        39.71588        -0.44212
O         57.50637        29.33200        -2.98327
H         57.97722        29.71727        -3.75022
O         32.43245        27.91379         1.61312
H         31.92452        28.55750         2.15848
O         42.45768        40.01522        -0.48459
H         43.36427        40.11625        -0.93226
O         59.29037        35.39771         0.20139
H         58.56137        35.11231         0.80717
O         39.19853        38.63686        -0.00893
H         39.24599        39.29337        -0.73616
O         35.76991        22.81504         1.55035
H         36.25310        22.45013         2.32218
O         53.19025        42.24186        -3.31388
H         52.48596        42.90581        -3.50935
O         52.27489        50.64740         1.64744
H         53.06543        50.62122         2.22610
O         49.54157        39.29890         1.74890
H         49.66954        40.23434         2.09904
O         39.12820        38.73202         3.59068
H         38.33195        38.46264         4.10805
O         48.94705        26.38455         2.81245
H         49.88409        26.43039         3.12670
O         43.15962        27.35418         3.87178
H         43.34424        26.43933         4.17532
O         36.69173        23.10553        -1.98762
H         36.18618        23.47855        -2.74591
O         35.46305        43.57883        -0.65411
H         35.11832        44.15118        -1.38019
O         29.29162        46.93314         1.86673
H         29.42698        46.06622         2.31072
O         35.12018        53.78395         2.04561
H         35.97297        54.20156         2.29399
O         45.75823        33.67851        -1.28318
H         46.08740        32.82859        -1.66061
O         44.10368        39.85570         2.80136
H         43.82259        39.07827         3.34489
O         30.07165        45.55006        -1.47541
H         29.76455        46.37751        -1.92236
O         51.71359        26.53875         2.59329
H         52.46800        25.91081         2.75997
O         34.60560        40.13805        -0.18667
H         35.40695        40.25921        -0.75426
O         43.75685        51.89042        -2.45789
H         44.49998        51.28027        -2.68458
O         55.87915        42.18760        -3.65152
H         54.92920        42.37391        -3.87793
O         33.52595        21.52849         0.90896
H         34.18301        22.10179         1.38173
O         55.73818        39.21737        -3.34220
H         55.72691        40.11536        -3.75699
O         28.86019        47.89126        -1.65048
H         28.97157        48.76861        -2.07551
O         43.59506        20.35330         2.81472
H         44.31948        20.69610         3.38341
O         51.39746        48.09365         1.97230
H         51.40712        49.04518         2.23960
O         58.60607        28.63359         0.42564
H         58.22136        29.17781         1.15417
O         51.27205        38.05378        -2.51017
H         50.46226        38.47259        -2.87384
O         51.84808        50.25136        -1.94098
H         51.33338        50.72645        -2.62612
O         48.21420        37.21447         1.99209
H         47.68755        36.58568         2.52708
O         52.69771        40.51490         0.80787
H         53.19316        39.73546         1.14887
O         36.23178        44.33415         2.82073
H         37.04347        44.19166         3.35158
O         53.78156        33.57732        -1.96926
H         52.89813        33.86087        -2.31766
O         25.49832        34.52896        -3.52508
H         24.88078        34.98689        -4.13337
O         31.36583        44.45387         2.68705
H         32.18763        44.14440         3.14237
O         33.40278        31.76919        -1.28496
H         34.24794        32.26703        -1.31321
O         30.75617        33.67595        -1.73824
H         31.59040        33.26589        -2.06056
O         41.13645        50.61538        -1.72358
H         41.89298        50.97660        -2.24486
O         48.94088        47.55468        -1.42489
H         48.81298        48.34032        -1.99809
O         38.11883        35.92971         0.35345
H         38.51100        36.80470         0.10668
O         38.69239        24.83420        -0.73104
H         38.22241        24.30164        -1.41908
O         43.07292        37.41035         3.37133
H         42.38483        36.84275         3.81072
O         34.49847        48.41462        -1.54300
H         34.81440        47.58150        -1.96815
O         55.45876        26.25550        -2.02547
H         55.15376        27.16763        -2.33416
O         55.91786        27.36184         1.43921
H         55.51174        28.06619         1.98708
O         52.29781        31.50199        -1.72529
H         52.24697        30.54447        -1.96312
O         51.36484        34.89595        -2.20915
H         50.99171        35.70145        -2.64719
O         45.33644        23.04800        -0.26656
H         44.44969        23.20975        -0.65346
O         51.95949        43.38448         1.30034
H         51.25025        42.85386         1.78857
O         52.63506        23.11169        -1.18561
H         52.60725        22.22947        -1.61068
O         38.61080        35.09414         3.87647
H         39.44527        34.96768         4.38224
H         23.44139        27.52302        -5.37662
H         23.12419        29.78857        -4.50448
H         22.80029        31.48418        -3.60171
H         22.56293        33.80094        -2.92941
H         22.66828        35.78028        -2.77025
H         22.42056        38.08849        -2.08704
H         22.21629        39.86647        -1.50783
H         22.12490        42.26471        -1.15119
H         22.04943        44.09839        -0.94019
H         22.00578        46.52465        -0.88952
H         26.98252        24.31892        -5.28345
H         24.94577        25.54190        -5.79255
H         25.32272        49.92763        -0.15728
H         23.21516        48.76111        -0.49784
H         28.20530        23.23259        -4.24979
H         26.92114        50.83812         0.51123
H         30.04292        21.89088        -3.43455
H         29.04961        52.00887         0.32866
H         32.65371        19.56110        -0.83848
H         31.13145        20.77814        -2.25118
H         32.83700        54.06212         0.98475
H         30.69705        52.86555         0.92075
H         34.38378        18.43674        -0.61004
H         34.48561        54.60677        -0.74577
H         36.41383        17.10996        -0.28432
H         36.60768        55.69977        -1.25468
H         40.03263        14.85187         0.89204
H         37.96970        16.12395         0.56288
H         40.09927        58.23671        -1.31091
H         38.05095        57.05738        -0.68235
H         42.57650        14.80205         1.09194
H         42.59085        58.21814        -1.74902
H         44.69868        15.99006         1.29929
H         44.73734        57.01769        -1.76853
H         48.54479        18.10948         0.53491
H         46.42027        16.90487         0.48092
H         48.54493        55.00162        -0.97012
H         46.41888        56.15986        -1.21087
H         50.18848        19.01199         0.94527
H         50.20863        53.99712        -1.18972
H         52.30176        20.20730         0.72453
H         52.31881        52.84175        -1.02573
H         56.11331        22.38820         0.61759
H         54.02228        21.16652         0.77455
H         55.98445        50.80681        -0.69081
H         54.08079        52.02098         0.19222
H         57.57041        23.26455        -0.71243
H         57.55940        49.84466        -1.12015
H         59.35187        24.50749        -1.84474
H         60.55293        26.67782        -2.28369
H         60.50447        29.09713        -2.58948
H         60.43567        31.08706        -2.60402
H         60.58423        33.50511        -2.37712
H         60.67710        35.41110        -2.35463
H         60.46300        37.73067        -2.95839
H         60.66842        39.65203        -2.46240
H         60.72993        42.07732        -2.25477
H         60.66337        44.04172        -2.51098
H         60.62177        46.50513        -2.52687
H         59.54522        48.57315        -1.81076
