         276
 CSIRO Nanostructure Databank - Neutral Graphene Oxide Data Set
C        -10.48032         0.74628         1.94443
C         -9.73795         1.52581         0.88012
C         -8.46561         0.78885         0.47990
C         -7.60634         1.43918        -0.60936
C         -6.20787         0.78059        -0.69871
C         -5.10302         1.48959        -1.43930
C         -3.86216         0.74731        -1.83880
C         -2.54692         1.52718        -1.96901
C         -1.23064         0.79608        -1.74666
C          0.08485         1.54886        -1.67913
C          1.37324         0.77282        -1.89785
C          2.70764         1.51934        -1.80628
C          3.91247         0.75461        -1.33101
C          4.97689         1.52420        -0.59453
C          6.24201         0.80065        -0.23201
C          7.53932         1.54262        -0.39111
C          8.82438         0.84742        -0.02791
C          9.89121         1.59712         0.71666
C         10.76973         0.77211         1.58461
C         -9.35802         2.91768         1.31056
C         -8.31960         3.62765         0.74358
C         -7.66664         3.03305        -0.52953
C         -6.33028         3.62953        -1.05603
C         -4.98436         2.91117        -0.93912
C         -3.67201         3.62851        -0.96555
C         -2.51308         3.01593        -1.71401
C         -1.18774         3.78820        -1.81653
C          0.11811         3.05049        -1.90533
C          1.44756         3.79969        -1.89108
C          2.74458         3.05319        -1.83731
C          4.13426         3.78616        -1.66379
C          4.95210         3.04817        -0.59920
C          6.00914         3.70377         0.24140
C          7.21913         2.98222         0.92490
C          8.54880         3.71111         0.74506
C          9.73546         3.07943         0.86882
C         -8.22095         5.02345         1.08957
C         -7.08395         5.86186         0.96268
C         -5.73696         5.18522         0.91130
C         -4.79503         5.80895        -0.09332
C         -3.56022         5.06664        -0.51560
C         -2.30568         5.83804        -0.72211
C         -1.20493         5.31702        -1.64302
C          0.14256         5.89321        -1.18001
C          1.42840         5.31233        -1.70560
C          2.70208         6.07522        -1.45389
C          4.02594         5.32581        -1.31232
C          5.11820         5.96554        -0.47454
C          6.32427         5.15909        -0.02227
C          7.15338         5.73515         1.08589
C          8.37335         5.17368         0.41293
C         -7.04469         7.24500         1.03718
C         -5.66301         7.87621         1.05337
C         -4.84601         7.30902        -0.11440
C         -3.65319         8.08781        -0.58901
C         -2.37393         7.34323        -0.72055
C         -1.11594         8.06380        -0.26663
C          0.15746         7.28450        -0.64256
C          1.31579         8.21752        -0.91090
C          2.71822         7.60385        -1.05774
C          3.52144         7.88576         0.24207
C          4.76798         7.10348         0.47782
C          5.27048         6.98317         1.93355
C          6.76102         6.67267         1.95087
C         -5.55117         9.37681         1.18299
C         -4.56536        10.10603         0.63524
C         -3.68743         9.61547        -0.49644
C         -2.29368        10.23180        -0.63128
C         -1.15092         9.52015        -0.71795
C          0.23910        10.02226        -1.02592
C          1.19975         9.42958        -0.03307
C          1.95441         9.69150         1.03652
C          2.82648         8.53447         1.47456
C          3.85478         8.94979         2.49844
C          4.96221         8.23485         2.71662
C        -10.45829        -0.59234         2.00294
C         -9.71166        -1.42842         0.98105
C         -8.43710        -0.69373         0.57350
C         -7.45917        -1.42833        -0.30231
C         -6.17543        -0.71199        -0.64037
C         -5.07995        -1.50056        -1.32039
C         -3.85763        -0.77652        -1.80990
C         -2.52760        -1.48907        -1.89577
C         -1.23289        -0.71703        -1.92144
C         -0.00835        -1.40089        -1.32331
C          1.31102        -0.72011        -1.61085
C          2.56809        -1.49918        -1.28201
C          3.87375        -0.75605        -1.18382
C          5.05136        -1.46753        -0.55674
C          6.27577        -0.71170        -0.17506
C          7.58715        -1.43104        -0.14074
C          8.85645        -0.66602        -0.03791
C         10.15796        -1.35791         0.38621
C         10.84204        -0.56845         1.48813
C         -9.38276        -2.84300         1.49588
C         -8.47194        -3.63806         0.55694
C         -7.51346        -2.92050        -0.32814
C         -6.32743        -3.69080        -0.85542
C         -5.00914        -2.95445        -0.91605
C         -3.73389        -3.70326        -1.10172
C         -2.50022        -3.00079        -1.62596
C         -1.20612        -3.70762        -1.31323
C         -0.02480        -2.85660        -0.91231
C          1.19212        -3.58311        -0.27274
C          2.51547        -2.81048        -0.50829
C          3.81493        -3.54470        -0.29410
C          5.13837        -2.96970        -0.82930
C          6.30718        -3.64314        -0.09289
C          7.53907        -2.87589         0.25486
C          8.82955        -3.58039         0.48885
C          9.97946        -2.83882         0.69395
C         -8.47696        -4.98325         0.58755
C         -7.61736        -5.89815        -0.27113
C         -6.36063        -5.18675        -0.85900
C         -5.04554        -5.94526        -0.99682
C         -3.74108        -5.21752        -1.14794
C         -2.48135        -5.90565        -0.59145
C         -1.18336        -5.19446        -0.99392
C          0.10920        -5.88678        -0.68078
C          1.42173        -5.07563        -0.65988
C          2.50899        -5.67406         0.26010
C          3.89769        -4.97701         0.24389
C          5.07858        -5.82629        -0.25124
C          6.44210        -5.13005        -0.34480
C          7.57784        -5.76431         0.43857
C          8.76381        -4.99955         0.64692
C         -7.24842        -7.11309         0.53199
C         -6.26175        -8.04413         0.06759
C         -5.04481        -7.41324        -0.64040
C         -3.72139        -8.14698        -0.55808
C         -2.43825        -7.42374        -0.82370
C         -1.08175        -8.16375        -0.61215
C         -0.00749        -7.24303        -0.01450
C          1.18038        -7.90375         0.59224
C          2.45854        -7.11125         0.67929
C          3.71342        -7.92117         0.49989
C          5.03110        -7.24648         0.18739
C          6.21121        -7.85152         0.92678
C          7.51599        -7.11172         0.76342
C         -6.10031        -9.40246         0.65516
C         -4.90489       -10.00508         0.73443
C         -3.63650        -9.21880         0.52344
C         -2.36653       -10.01613         0.52984
C         -1.17666        -9.44854         0.21074
C          0.08355       -10.09696         0.57271
C          1.22226        -9.38391         0.76500
C          2.46825       -10.00036         1.38554
C          3.72754        -9.38899         0.77402
C          5.06574       -10.05451         0.84986
C          6.21920        -9.36304         0.80737
O         -8.63562         3.45074        -1.52816
O          3.48486        -1.45503        -2.40994
O          5.26371         1.17341         0.77622
O         -5.46082         4.28042         1.67049
O         -4.39068        -5.76835        -2.30324
O         -0.58340         3.46234        -3.10778
O          0.32480         6.14203         0.25125
O         -0.62110         1.17147        -0.45998
O          3.74933         1.08884        -2.73357
O         -1.80589        -1.18544        -3.14408
O          0.10172        -7.27589         1.41732
O          8.39397        -1.18596        -1.34206
O         -6.66733        -4.44157        -2.06458
O          2.26474        -6.04436         1.64667
O         -3.13812        -8.14450        -1.88104
O          6.54233        -3.23038         1.26825
O         -0.34723        -1.76391         0.04075
O          4.84082         8.44658        -0.05873
O         -0.44641        -5.91942        -2.02249
O          3.44158        -8.90642        -0.57471
O         -3.09735         7.76533        -1.91058
O         -8.11611        -2.10867        -1.40015
O          3.24305        -2.67546         0.73903
O          7.57473         5.16085        -0.85916
O         -2.50242         5.15515         0.52057
O          7.06884         2.37813         2.02742
O          9.98541         1.35547        -0.75145
O          2.10763         5.97746        -2.79273
O          5.01674        -6.88898        -1.22747
O         -5.67305         0.10190         0.46697
O         -4.86565        -1.30469        -2.73487
O          5.32421        -1.17012         0.82536
O         -1.12631         8.17898         1.13321
O         -4.12062         2.86021         0.21894
O         -7.82622         0.13274         1.60638
O          4.67150         3.52266         0.75711
O         -1.72774        -3.61999        -2.67646
O         -5.54694         6.55146        -1.11383
O         -4.86300         1.22328        -2.81790
O          5.08016         6.16413        -1.90304
O          1.30203        -0.19126        -2.97132
O          0.80316         9.07413        -2.03872
O         -0.59567        -8.57154        -1.85381
O          2.16931         3.45516        -3.11545
O         -4.12532        -3.19192         0.22350
O         -2.74525         2.47052        -3.04705
O          6.83576        -5.34246        -1.77181
O         -6.05451        -8.09394        -1.40304
O          5.86461        -7.58492         2.33428
H          6.56084        -7.97590         2.90310
O         -6.42865         4.47878        -1.92587
H         -8.19842         4.18190        -2.04267
O         -2.57475        -5.75364         0.85112
H         -2.81174        -6.61546         1.27804
O         -3.54678        -8.33313         1.72815
H         -3.23169        -8.87654         2.48313
O          7.62198         2.18345        -1.59318
H          8.57640         2.32707        -1.80488
O          4.82391         3.64740        -2.89488
H          4.21053         3.91194        -3.61581
O          4.31776        -4.82042         1.61525
H          3.73908        -4.14422         2.03465
O        -10.59534        -3.54946         1.72576
H        -11.15953        -3.39882         0.93587
O         -1.48141         5.87876        -2.93302
H         -1.00207         5.34712        -3.60903
O         -4.98387         7.33709         2.23009
H         -5.35274         7.76204         3.03239
O        -10.56212        -1.58818        -0.17220
H        -10.78489        -0.69308        -0.51309
O          0.92821        -3.63754         1.12716
H          0.67385        -2.74064         1.43741
O          2.44037        -9.76788         2.80224
H          2.25409        -8.81878         2.96327
O          1.98525         7.52861         2.08584
H          1.03952         7.68044         1.85067
O         11.05183        -1.32218        -0.75332
H         10.50586        -1.49670        -1.55187
O          1.99015        -5.09511        -1.97664
H          1.32062        -5.47137        -2.59841
O          4.55138         5.86122         2.48812
H          4.56515         5.91929         3.46490
O          3.34300         8.28930        -2.13323
H          4.25665         7.93347        -2.22826
O        -10.60950         1.62058        -0.28306
H        -10.23775         2.30858        -0.88185
O         -8.40984        -6.33779        -1.39797
H         -8.22955        -5.71412        -2.13931
O         -4.39512        10.05906        -1.68832
H         -4.03101         9.53810        -2.43987
O          7.88126        -4.39866        -2.09555
H          7.38923        -3.73036        -2.63974
O         -8.19867         1.04653        -1.86025
H         -8.63736         1.83731        -2.25959
O          5.34365        -3.24785        -2.21585
H          4.62337        -2.81241        -2.73603
H         11.49584        -1.12246         2.17835
H         11.32447         1.29352         2.37897
H         10.67121         3.66245         0.81854
H          9.31530         5.76257         0.34171
H          7.44766         7.17970         2.64511
H          5.67880         8.54040         3.49581
H          3.64489         9.84607         3.10289
H          1.91076        10.63109         1.60589
H          0.30994        11.09163        -1.32757
H         -2.28229        11.30664        -0.87754
H         -4.50046        11.17843         0.87715
H         -6.21281         9.84812         1.92889
H         -7.96166         7.85279         1.07957
H         -9.11001         5.45197         1.58325
H         -9.94251         3.39412         2.11431
H        -11.06781         1.32129         2.67741
H        -11.03648        -1.12336         2.77468
H         -8.85039        -2.74737         2.48113
H         -9.21577        -5.48109         1.23611
H         -7.74035        -7.29509         1.49916
H         -7.02209        -9.94926         0.90435
H         -4.82729       -11.04268         1.09321
H         -2.38329       -10.98646         1.05364
H          0.06332       -11.17383         0.80454
H          2.46652       -11.10804         1.23238
H          5.08199       -11.15586         0.84938
H          7.18373        -9.89444         0.80922
H          8.40316        -7.57798         1.22701
H          9.66669        -5.52409         0.99918
H         10.91591        -3.38081         0.90253
