         732
 CSIRO Nanostructure Databank - Neutral Graphene Oxide Data Set
C         23.24981        24.46489        -1.53223
C         22.07199        25.16623        -1.80004
C         23.30484        27.26812        -1.79747
C         22.09622        26.54856        -1.93343
C         23.33932        28.71812        -1.95421
C         22.20473        29.42451        -2.40988
C         23.44166        31.51300        -2.42193
C         22.25726        30.78980        -2.64468
C         23.55791        32.92400        -2.85600
C         22.38090        33.76222        -3.12729
C         23.72986        35.82448        -3.11641
C         22.49442        35.10199        -3.32583
C         23.84099        37.23941        -3.40045
C         22.79559        38.13778        -3.77921
C         23.73782        40.42494        -3.12332
C         22.75611        39.53987        -3.64884
C         23.51818        41.78804        -2.65050
C         22.34538        42.50811        -2.96854
C         23.27448        44.55948        -2.03842
C         22.23861        43.86704        -2.67568
C         23.18758        46.06035        -1.90764
C         21.86918        46.58787        -1.40619
C         22.97089        48.67030        -0.79260
C         21.80039        47.87892        -0.96160
C         25.71695        23.08421        -0.79142
C         25.70570        24.41835        -1.10676
C         24.47063        25.14355        -1.38853
C         25.73371        27.29309        -1.26432
C         24.50219        26.56216        -1.51945
C         25.71397        28.72103        -1.23116
C         24.52636        29.43717        -1.66412
C         25.73313        31.60524        -1.45210
C         24.57223        30.84852        -1.88177
C         25.84704        32.97176        -1.66231
C         24.84684        33.66991        -2.49719
C         25.97097        35.83196        -2.02527
C         24.83252        35.14113        -2.54552
C         26.06752        37.22136        -2.30871
C         25.13333        37.77243        -3.16793
C         25.96481        40.41771        -2.00773
C         25.07162        39.95872        -2.95852
C         25.76154        41.75620        -1.51514
C         24.55722        42.45890        -1.93531
C         25.52340        44.54516        -1.00099
C         24.44073        43.85375        -1.63088
C         25.51829        45.96182        -0.88881
C         24.34559        46.69576        -1.18393
C         25.46566        48.79584        -0.51269
C         24.25058        48.07702        -0.84625
C         25.47986        50.20347        -0.35327
C         28.15487        23.00258        -0.53961
C         26.93275        22.36478        -0.57575
C         28.20137        24.44858        -0.69890
C         27.01581        25.14261        -1.33047
C         28.10135        27.32458        -0.61373
C         26.93786        26.61598        -1.00591
C         28.06408        28.75025        -0.45985
C         26.85810        29.42191        -0.80536
C         27.96311        31.64791        -0.16652
C         26.75447        30.88751        -0.65785
C         28.01417        33.08462        -0.48065
C         26.97413        33.72763        -1.14152
C         28.22806        35.87598        -0.99905
C         27.04792        35.15889        -1.36018
C         28.33286        37.32444        -1.30455
C         27.05971        38.05686        -1.58122
C         28.19725        40.24908        -0.83995
C         27.03008        39.55259        -1.43520
C         27.90541        41.58656        -0.19429
C         26.76382        42.37377        -0.78729
C         27.93590        44.52741        -0.26222
C         26.61356        43.78410        -0.29332
C         27.93428        45.93555        -0.28584
C         26.71055        46.66038        -0.48078
C         27.92198        48.79851        -0.19467
C         26.69811        48.08224        -0.39825
C         27.91173        50.22353        -0.08186
C         26.65600        50.89500        -0.14087
C         30.51456        20.12065         0.09226
C         29.43057        20.82315        -0.33980
C         30.55965        22.96741        -0.03746
C         29.40607        22.27698        -0.30937
C         30.51708        24.45038         0.23998
C         29.33016        25.16195        -0.37804
C         30.49881        27.34413        -0.10051
C         29.33185        26.61915        -0.37742
C         30.47366        28.76145         0.10748
C         29.24554        29.46417        -0.04215
C         30.35851        31.60745         0.48592
C         29.23085        30.91316         0.10832
C         30.34030        33.08542         0.62120
C         29.13572        33.85017         0.06653
C         30.48905        35.95466         0.05532
C         29.29833        35.25510        -0.32876
C         30.56466        37.35912        -0.09240
C         29.49491        38.10551        -0.77853
C         30.44713        40.21543         0.15219
C         29.34970        39.55884        -0.48608
C         30.34465        41.66175         0.42051
C         29.15793        42.40184        -0.01818
C         30.39986        44.53589         0.11181
C         29.15014        43.80087        -0.02749
C         30.39783        45.95750        -0.00886
C         29.16602        46.66291        -0.14096
C         30.39116        48.80329        -0.02757
C         29.15885        48.08614        -0.11943
C         30.38761        50.23468        -0.01401
C         29.14382        50.93700         0.03945
C         30.33260        53.06553         0.21728
C         29.17985        52.36171         0.29483
C         32.87420        18.66676         1.19184
C         32.83997        20.09734         0.94902
C         31.73177        20.77914         0.49452
C         32.91313        23.03645         0.81914
C         31.88200        22.22472         0.06288
C         33.09244        24.42551         0.39963
C         31.82497        25.15649        -0.07947
C         33.06024        27.39623         0.24465
C         31.80353        26.64936        -0.12534
C         32.91502        28.81774         0.63703
C         31.68033        29.45408         0.50606
C         32.85269        31.63089         1.04530
C         31.54689        30.85726         1.04681
C         32.78120        33.10275         1.22337
C         31.60309        33.84096         0.75413
C         32.88454        35.96310         0.71593
C         31.63576        35.23011         0.58296
C         32.91166        37.38644         0.55164
C         31.71463        38.09208         0.27747
C         32.89871        40.23830         0.54495
C         31.68327        39.53861         0.33567
C         32.94072        41.71004         0.90003
C         31.61632        42.43976         0.69892
C         32.86214        44.55459         0.21890
C         31.62532        43.86688         0.32545
C         32.86673        45.96948         0.09791
C         31.63132        46.67443         0.04040
C         32.86216        48.82013         0.05829
C         31.62892        48.10328         0.01114
C         32.85167        50.25532         0.06961
C         31.62168        50.94393        -0.00928
C         32.84602        53.16850         0.03856
C         31.58586        52.42109        -0.32077
C         32.90075        54.52073        -0.11284
C         35.34145        18.67827         1.33363
C         34.02875        18.00746         1.45623
C         35.34542        20.19969         1.36563
C         34.00766        20.85732         1.48087
C         35.24266        23.11365         1.91509
C         33.96489        22.37353         1.57830
C         35.20782        24.64185         1.86327
C         34.20369        25.24707         0.89699
C         35.34884        27.38584         1.24149
C         34.20278        26.62729         0.79707
C         35.31860        28.80833         1.23987
C         34.10045        29.51935         1.04832
C         35.31071        31.68825         1.63417
C         34.04961        30.96221         1.17584
C         35.36080        33.14158         1.23859
C         34.10770        33.88411         1.30037
C         35.35922        35.97421         0.78962
C         34.10195        35.29958         0.93347
C         35.37673        37.41053         0.62718
C         34.14371        38.10095         0.58856
C         35.36655        40.23356         0.42002
C         34.12802        39.53476         0.53442
C         35.32188        41.65587         0.06223
C         34.10987        42.43290         0.28132
C         35.36098        44.55284         0.07995
C         34.11172        43.81765         0.17316
C         35.34316        45.98308         0.10661
C         34.10770        46.69116         0.08496
C         35.33990        48.83852         0.10648
C         34.10040        48.11522         0.07947
C         35.31359        50.28086         0.18781
C         34.09458        50.96663         0.18888
C         35.34672        53.15620         0.28180
C         34.05147        52.42887         0.56951
C         35.31352        54.60855         0.29358
C         34.10062        55.25834         0.14178
C         37.85195        15.95640         2.08791
C         36.64523        16.61368         1.89806
C         37.80713        18.75442         1.74157
C         36.60653        18.00226         1.68059
C         37.78067        20.21198         1.77537
C         36.59628        20.90426         1.71641
C         37.82990        23.12108         1.85940
C         36.55308        22.36874         1.99219
C         37.80815        24.54693         1.77661
C         36.57319        25.28443         1.68715
C         37.79684        27.44004         1.72488
C         36.55685        26.67231         1.54350
C         37.81023        28.85907         1.34531
C         36.57467        29.54779         1.31837
C         37.79016        31.64802         1.09374
C         36.57576        30.95467         1.28145
C         37.82001        33.09707         1.05742
C         36.55349        33.82352         1.04141
C         37.86935        35.93051         0.54000
C         36.55577        35.24668         0.82204
C         37.84799        37.43687         0.69814
C         36.60864        38.13100         0.59584
C         37.85738        40.29291         0.51190
C         36.60572        39.56212         0.47992
C         37.88165        41.70391         0.40508
C         36.66411        42.42322         0.01725
C         37.81958        44.58756         0.29902
C         36.59519        43.87646         0.15483
C         37.80008        45.99531         0.20643
C         36.57867        46.70524         0.12591
C         37.81625        48.87398         0.21606
C         36.56622        48.14459         0.12560
C         37.79667        50.32151         0.22625
C         36.56905        51.00550         0.22983
C         37.79838        53.16597        -0.08723
C         36.53128        52.45028         0.17752
C         37.80502        54.69639         0.06300
C         36.55318        55.35632         0.44266
C         37.85559        57.33891         1.02786
C         36.61896        56.65115         0.92060
C         40.41189        14.52370         2.29736
C         40.34315        15.91795         2.03703
C         39.07441        16.65490         2.03752
C         40.28858        18.81989         1.82507
C         39.04995        18.06802         1.88164
C         40.31340        20.21038         1.80525
C         39.04672        20.94322         2.19828
C         40.27337        23.10703         1.71957
C         39.03811        22.41525         1.84529
C         40.26955        24.52566         1.71408
C         39.06333        25.22833         1.75465
C         40.34691        27.41972         1.47384
C         39.10183        26.70317         1.84199
C         40.31276        28.81209         1.16882
C         39.03852        29.53198         1.15412
C         40.22926        31.66666         0.63062
C         39.00290        30.92942         0.96273
C         40.27399        33.11302         0.87625
C         39.02615        33.78610         1.08659
C         40.26200        35.97258         1.13767
C         38.98019        35.26103         1.39539
C         40.25553        37.44382         1.39725
C         39.03508        38.15751         0.86291
C         40.30072        40.30007         1.00623
C         39.07336        39.58323         0.79962
C         40.30124        41.75437         0.98856
C         39.06228        42.46044         0.67025
C         40.23711        44.64748         0.86638
C         39.04711        43.86921         0.56721
C         40.26244        45.99757         0.65375
C         39.10223        46.71094        -0.00357
C         40.27665        48.89565         0.32198
C         39.02789        48.18949         0.28602
C         40.28206        50.33898         0.18727
C         39.05876        51.04071         0.18635
C         40.28024        53.20075         0.06986
C         39.07337        52.46570         0.07922
C         40.27072        54.63913         0.16322
C         39.09034        55.35752         0.32835
C         40.35325        57.45536         0.88510
C         39.07745        56.73962         0.74222
C         40.39007        58.80658         1.29458
C         42.83226        14.51677         2.06787
C         41.67260        13.88594         2.43420
C         42.73711        15.82622         1.33067
C         41.53637        16.61111         1.79008
C         42.85237        18.82863         1.69795
C         41.55183        18.06887         1.88844
C         42.73347        20.24017         1.30395
C         41.53081        20.93490         1.53471
C         42.68883        23.10613         1.23023
C         41.51496        22.39129         1.50703
C         42.76356        24.52575         1.35958
C         41.57190        25.26825         1.90715
C         42.77492        27.39695         1.21002
C         41.55046        26.71445         1.45326
C         42.77444        28.80422         1.01375
C         41.53166        29.48455         0.93703
C         42.79860        31.67809         0.74453
C         41.55033        30.91501         0.58586
C         42.76002        33.09315         0.73370
C         41.49372        33.78723         0.78457
C         42.78939        36.03203         0.83269
C         41.45150        35.26505         0.73164
C         42.73611        37.45731         1.19993
C         41.55142        38.15951         1.14143
C         42.75778        40.29771         1.39131
C         41.52824        39.59624         1.20244
C         42.68683        41.74659         1.63595
C         41.44984        42.47104         1.29797
C         42.72647        44.67771         1.28664
C         41.40479        43.96781         1.55474
C         42.75376        46.02617         1.00544
C         41.45647        46.81490         1.08181
C         42.72664        48.86535         0.11973
C         41.46706        48.19123         0.45302
C         42.76679        50.35059         0.06844
C         41.52473        51.05299         0.11787
C         42.77655        53.15068         0.17682
C         41.53090        52.47508         0.09091
C         42.76249        54.59602         0.46814
C         41.56542        55.39927         0.01307
C         42.80829        57.49178         0.69463
C         41.56626        56.79637         0.59492
C         42.79832        58.85328         1.08204
C         41.60087        59.49343         1.38162
C         45.14222        15.95339         0.76278
C         44.03534        16.59262         1.21645
C         45.00011        18.71296         0.34661
C         44.17183        18.09046         1.48038
C         45.05308        20.21826         0.47433
C         43.90738        20.90894         0.79796
C         45.16081        23.04705         0.80845
C         43.81892        22.39886         0.52654
C         45.22265        24.50947         1.07266
C         43.95433        25.24200         1.18050
C         45.24676        27.36348         0.98013
C         44.01534        26.67326         1.14980
C         45.25149        28.79959         0.90496
C         44.02347        29.51763         0.90128
C         45.25867        31.66686         0.83994
C         44.02322        30.95395         0.83930
C         45.24083        33.09999         0.83407
C         44.00534        33.82195         0.82028
C         45.24838        35.93002         1.11401
C         44.02944        35.24160         0.96989
C         45.27192        37.37071         1.46990
C         43.97733        38.15724         1.55604
C         45.25436        40.31797         1.57939
C         43.99225        39.63293         1.51685
C         45.27935        41.75540         1.57622
C         44.00615        42.48785         1.78021
C         45.28885        44.69517         1.36334
C         43.98401        43.98114         1.62553
C         45.22460        46.07617         0.86800
C         44.00506        46.72285         0.80723
C         45.24793        48.95232         0.56877
C         44.00771        48.11832         0.29925
C         45.25636        50.22508        -0.29187
C         43.98761        51.03318        -0.01047
C         45.25341        53.20475         0.14295
C         44.00342        52.45510         0.12432
C         45.29434        54.57590         0.24742
C         44.07413        55.33960         0.54382
C         45.28740        57.47502         0.23187
C         44.05906        56.80772         0.44233
C         46.36342        16.67112         0.46097
C         47.56780        18.77360        -0.06713
C         46.35770        18.02245         0.26287
C         47.56341        20.18363        -0.07132
C         46.29083        20.91510         0.04522
C         47.65631        23.09045         0.35233
C         46.35807        22.40056         0.20396
C         47.67318        24.46341         0.63424
C         46.47990        25.23272         0.82272
C         47.76413        27.34141         0.79067
C         46.49512        26.63271         0.86625
C         47.74307        28.80164         0.78053
C         46.49975        29.51308         0.82249
C         47.73221        31.67139         0.81855
C         46.49701        30.94437         0.83229
C         47.70699        33.09186         0.85081
C         46.47929        33.81580         0.84904
C         47.69873        36.00800         0.88654
C         46.47749        35.24532         0.96964
C         47.70227        37.42845         0.97119
C         46.49708        38.15576         1.26670
C         47.76588        40.25938         1.37313
C         46.47138        39.54981         1.42059
C         47.76006        41.77801         1.28120
C         46.46738        42.48769         1.31219
C         47.68717        44.57462         0.73586
C         46.50844        43.89467         1.12232
C         47.68866        45.99391         0.52677
C         46.47563        46.75655         0.58407
C         47.75494        48.84149         0.36532
C         46.51338        48.14534         0.41872
C         47.78457        50.26125         0.30531
C         46.55592        50.99533        -0.08266
C         47.74023        53.15436         0.67808
C         46.54871        52.47945         0.02585
C         47.86764        54.59323         0.18584
C         46.54695        55.33647         0.00038
C         46.47599        56.79943         0.04738
C         49.92058        18.82173        -0.69553
C         48.78431        18.10923        -0.36563
C         49.94131        20.23664        -0.64421
C         48.76218        20.93015        -0.25919
C         50.08781        23.01289        -0.04914
C         48.83849        22.35273         0.01783
C         50.24496        24.36109         0.52282
C         48.95763        25.15326         0.83550
C         50.27554        27.31209         0.86516
C         48.96172        26.62669         0.82531
C         50.25004        28.81457         0.81423
C         48.95637        29.52103         0.73799
C         50.19604        31.63090         0.43202
C         48.97442        30.94488         0.71456
C         50.26598        33.08442         0.59510
C         48.95439        33.85321         0.91707
C         50.11031        36.00451         0.40596
C         48.93217        35.31466         0.69352
C         50.10159        37.43479         0.34492
C         48.92350        38.13853         0.74829
C         50.12407        40.26446         0.54004
C         48.95669        39.55010         0.86719
C         50.10481        41.70254         0.42553
C         48.92642        42.44303         0.67823
C         50.04860        44.49637        -0.06870
C         48.91380        43.84280         0.48563
C         50.21604        45.99761         0.00278
C         48.90947        46.68599         0.32589
C         50.25672        48.73891         0.56382
C         48.96439        48.07952         0.38797
C         50.27450        50.21729         0.43084
C         49.00810        50.97262         0.42594
C         50.22552        53.08059         0.91381
C         49.04032        52.38075         0.55278
C         50.19450        54.53865         0.96452
C         49.12600        55.26743         0.56129
C         52.20006        20.37485        -1.68250
C         51.12158        20.99160        -0.99766
C         52.39881        23.11101        -0.99009
C         51.20101        22.37128        -0.67664
C         52.51532        24.48382        -0.64950
C         51.61968        25.03927         0.42517
C         52.68674        27.34965        -0.13993
C         51.56824        26.58137         0.50248
C         52.65673        28.77997        -0.19056
C         51.51294        29.53944         0.35657
C         52.50307        31.67769        -0.45478
C         51.37509        30.96963         0.03298
C         52.46831        33.12315        -0.54592
C         51.37088        33.81574         0.00377
C         52.46542        36.03162        -0.57588
C         51.37347        35.28391         0.12270
C         52.28983        37.49843        -0.92178
C         51.24267        38.16539        -0.06738
C         52.50685        40.27812        -0.17504
C         51.27942        39.56297         0.06017
C         52.52525        41.68213        -0.09321
C         51.24076        42.35827        -0.11836
C         52.80876        44.49068         1.05613
C         51.10138        43.70451        -0.56602
C         52.64432        45.85980         0.85392
C         51.28019        46.49904         1.05969
C         52.62293        48.62274         1.50929
C         51.35556        48.01759         0.94539
C         52.61314        50.14603         1.51674
C         51.53732        50.95164         0.91338
C         52.44678        52.97370         2.03453
C         51.40723        52.37525         1.27372
C         53.32879        21.08765        -2.02099
C         54.70847        23.15940        -1.87683
C         53.47085        22.45271        -1.66230
C         54.79972        24.52414        -1.50727
C         53.69070        25.20738        -0.95531
C         54.85892        27.37420        -1.34566
C         53.74712        26.65479        -0.75129
C         54.82575        28.82631        -1.37719
C         53.69870        29.51379        -0.80829
C         54.81271        31.68604        -1.29335
C         53.66813        30.96074        -0.85896
C         54.78572        33.12870        -1.37636
C         53.59831        33.82500        -1.06681
C         54.71361        36.06299        -1.68020
C         53.41577        35.27127        -1.47945
C         54.79481        37.48689        -1.25748
C         53.64213        38.18030        -0.86165
C         54.94473        40.22807        -0.60704
C         53.71750        39.54674        -0.49892
C         55.07638        41.65427        -0.12741
C         53.76609        42.40367         0.02401
C         55.04113        44.53045        -0.02085
C         53.88114        43.75435         0.40322
C         54.99515        45.94386         0.06423
C         53.81383        46.63070         0.49250
C         55.15769        48.62826         0.95413
C         53.87146        47.99775         0.87815
C         55.50828        49.64212         1.84950
C         53.54764        50.82257         2.26285
C         53.50662        52.22698         2.50488
C         57.01821        23.20594        -2.71192
C         55.83279        22.51165        -2.45569
C         57.18484        24.53451        -2.33820
C         56.13901        25.21402        -1.48854
C         57.06980        27.35509        -2.50873
C         55.99065        26.68216        -1.78685
C         57.01655        28.88742        -2.57362
C         55.92606        29.56389        -1.85556
C         57.17836        31.71493        -2.00493
C         55.97919        30.98974        -1.72175
C         57.19634        33.14226        -1.89847
C         55.98577        33.83170        -1.71298
C         57.27396        36.02691        -1.70342
C         55.99449        35.30372        -1.83731
C         57.28178        37.42325        -1.54635
C         56.05231        38.15435        -1.30387
C         57.35260        40.28845        -1.18267
C         56.10302        39.55108        -1.03520
C         57.36896        41.68711        -1.10605
C         56.05576        42.43014        -1.00096
C         57.38501        44.58679        -0.82539
C         56.17556        43.87493        -0.57420
C         57.42393        45.98915        -0.65188
C         56.10157        46.74656        -0.58701
C         57.58007        48.80023         0.07238
C         56.22246        48.14600         0.02715
C         57.83711        49.77766         1.13875
C         56.83117        50.16921         1.97047
C         59.61687        24.56517        -2.87640
C         58.40696        25.25168        -2.63081
C         59.56923        27.37541        -2.96583
C         58.37964        26.67047        -2.68771
C         59.59027        28.86407        -3.03122
C         58.28857        29.63695        -2.82763
C         59.60921        31.70898        -2.41839
C         58.37570        31.03874        -2.38536
C         59.65030        33.14034        -2.20593
C         58.44692        33.85898        -2.01291
C         59.72595        35.98110        -1.88988
C         58.48370        35.28704        -1.85630
C         59.74530        37.41619        -1.75950
C         58.53373        38.13203        -1.56383
C         59.78588        40.26841        -1.56262
C         58.56173        39.55982        -1.43143
C         59.79457        41.70655        -1.49339
C         58.58229        42.41816        -1.25622
C         59.80854        44.55632        -1.33520
C         58.59526        43.85483        -1.15048
C         59.84880        45.99404        -1.17629
C         58.66190        46.68901        -0.78357
C         59.94052        48.77681        -0.71598
C         58.75255        48.08700        -0.50357
C         60.78004        25.26935        -3.16124
C         60.75973        26.66482        -3.20029
C         60.82429        29.58872        -2.70682
C         60.82350        30.93568        -2.52279
C         60.87821        33.86033        -2.24079
C         60.91537        35.22657        -2.08364
C         60.96421        38.15030        -1.83836
C         60.98285        39.52154        -1.76107
C         60.99186        42.44977        -1.68599
C         60.99450        43.82178        -1.62610
C         61.03818        46.73092        -1.38581
C         61.07917        48.10155        -1.18662
O         33.60791        21.49347         2.72551
O         49.89189        33.48676         1.96647
O         42.37154        18.55966         3.05701
O         51.27628        50.69221        -0.51349
O         38.44447        27.22911         3.04237
O         43.42598        48.20397        -1.03030
O         56.57848        49.18269        -0.95611
O         36.01488        41.93118        -1.20099
O         29.30535        33.60981         1.51647
O         58.84489        29.42543        -4.16122
O         51.19027        29.35963         1.78141
O         48.05281        41.08834         2.55072
O         47.35996        54.83731        -1.14432
O         35.78747        22.69256         3.20835
O         55.23223        35.81488        -3.03347
O         43.24291        42.10091         2.97540
O         44.73864        44.60015         2.73004
O         33.30569        33.57687         2.51648
O         56.58546        28.07888        -3.70095
O         45.37233        23.48041         2.17020
O         35.45172        19.47677         0.09783
O         37.75155        54.04601        -1.25457
O         49.74578        24.49611         1.88908
O         43.32663        54.90426         1.76617
O         46.09772        21.83501        -1.13428
O         30.72006        42.10604         1.80158
O         51.23568        26.90021         1.89153
O         32.71220        27.16308        -1.16079
O         46.82851        51.87139        -1.26244
O         26.44252        38.63233        -0.35930
O         32.70980        24.60727        -1.05126
O         26.85601        31.31208         0.75027
O         54.61856        50.10838         2.84326
O         29.41503        37.71701        -2.21211
O         25.49511        38.94861        -3.82158
O         42.13665        35.81265        -0.46651
O         40.82406        31.24798        -0.64916
O         24.64825        33.07983        -3.82818
O         52.59691        35.79528         0.83955
O         44.62101        37.61116         2.76975
O         52.63075        48.19501         2.92230
H         53.42778        48.60826         3.33313
O         55.66699        41.59837         1.20357
H         55.04170        41.12826         1.79399
O         47.42881        53.21965         2.10042
H         48.20223        53.60360         2.56476
O         43.53127        22.55545        -0.89284
H         44.31394        22.19755        -1.38324
O         39.04314        20.92593         3.66542
H         39.24452        20.01149         3.95693
O         50.78176        46.16232         2.38339
H         51.29550        46.71984         3.01679
O         52.76665        35.20075        -2.79173
H         53.50710        35.13093        -3.44520
O         35.23490        31.67679         3.10052
H         34.49376        32.28763         3.33913
O         40.11963        37.59284         2.86980
H         39.33951        37.04236         3.13630
O         51.78411        37.62583        -2.28102
H         52.11153        36.84717        -2.80086
O         51.96665        44.23279        -1.46298
H         52.65657        43.58049        -1.70337
O         41.76413        25.30645         3.36280
H         42.68202        25.60494         3.53711
O         33.89268        52.43371         2.04247
H         34.65391        51.94298         2.41943
O         51.99383        43.82105         1.90198
H         51.34751        44.47055         2.29048
O         44.28771        18.43821        -0.88961
H         44.81582        18.79401        -1.63418
O         31.48576        52.51162        -1.79023
H         30.66326        52.04682        -2.05460
O         38.24038        35.64187        -0.83596
H         37.57170        36.04655        -1.42687
O         55.46848        42.47064        -2.34062
H         56.06870        42.98947        -2.91701
O         55.69800        46.92774        -1.98066
H         56.00298        47.82941        -2.24045
O         38.54614        35.42016         2.78604
H         39.04839        34.78631         3.34045
O         41.27382        47.06027         2.52207
H         41.21826        46.17191         2.95533
O         52.32813        24.62156         1.62717
H         51.82324        25.00723         2.38179
O         42.42095        15.45293        -0.07683
H         41.61186        14.89752        -0.04823
O         26.17649        43.69356         1.11817
H         26.63559        42.90237         1.50189
O         45.18279        49.40283         1.94832
H         45.21656        48.61758         2.53472
O         45.24128        49.82980        -1.67363
H         45.60321        50.58497        -2.19065
O         34.73695        25.06185         3.18090
H         35.19354        24.48604         3.83707
O         39.36151        46.63864        -1.45861
H         39.29057        45.69686        -1.72430
O         27.24495        25.08438        -2.78664
H         27.30291        24.13693        -3.03369
O         23.29365        46.55575        -3.30769
H         23.22124        47.53397        -3.26512
O         32.37840        22.05328        -1.31680
H         32.49914        22.95908        -1.69623
O         41.76957        55.54976        -1.43478
H         40.93197        55.87845        -1.82517
O         27.44987        41.24693         1.18631
H         26.86254        40.46108         1.10530
O         56.63704        25.12160        -0.09457
H         56.52093        24.19213         0.19687
O         31.21699        30.70187         2.47887
H         31.98708        30.27898         2.91583
O         44.94227        18.26182         2.69032
H         44.30945        18.20413         3.44190
O         41.19623        44.13483         2.99976
H         41.88844        43.58331         3.44201
O         50.68474        46.51326        -1.25857
H         50.08712        46.20011        -1.96737
O         30.39079        24.60993         1.69268
H         29.55402        24.18320         1.97430
O         33.21785        41.75117         2.33942
H         32.34395        41.65546         2.78688
H         23.20728        23.37109        -1.44583
H         21.12443        24.62101        -1.90907
H         21.15411        27.07425        -2.13480
H         21.27184        28.89279        -2.63603
H         21.37095        31.29591        -3.05042
H         21.38837        33.29227        -3.17768
H         21.59640        35.67965        -3.58785
H         21.83549        37.67932        -4.06541
H         21.76594        39.98239        -3.84687
H         21.52969        42.00925        -3.50992
H         21.33897        44.41268        -2.99319
H         20.95596        45.99063        -1.53796
H         22.85664        49.71594        -0.47837
H         20.82669        48.32074        -0.70347
H         24.77696        22.52292        -0.69775
H         24.54101        50.76928        -0.42661
H         26.86064        21.28473        -0.39264
H         26.61692        51.98883        -0.05149
H         30.45299        19.02477         0.15036
H         28.52867        20.27903        -0.65051
H         30.33574        54.14205         0.44129
H         28.25649        52.87117         0.60555
H         31.92762        18.10744         1.19250
H         32.01796        55.07506        -0.46343
H         33.99527        16.93599         1.69650
H         34.06356        56.35586         0.10423
H         37.84118        14.86734         2.22286
H         35.71758        16.02656         1.88456
H         37.82197        58.37821         1.38053
H         35.70124        57.17656         1.22015
H         39.50749        13.95631         2.55064
H         39.46210        59.34049         1.53709
H         43.80466        14.01513         2.17214
H         41.70719        12.87207         2.85936
H         43.74350        59.40407         1.18017
H         41.60753        60.54653         1.69515
H         45.12823        14.86653         0.59196
H         45.30169        58.57357         0.18857
H         47.28627        16.08312         0.35417
H         47.39258        57.36746        -0.16326
H         50.83161        18.26882        -0.96015
H         48.82331        17.01223        -0.38344
H         51.12137        55.06904         1.22324
H         49.20131        56.36112         0.47760
H         52.13235        19.31861        -1.97392
H         52.39944        54.04251         2.28271
H         54.13011        20.57207        -2.56508
H         54.30062        52.68995         3.10413
H         57.81736        22.68919        -3.26236
H         55.76868        21.46252        -2.76824
H         58.86535        50.12372         1.31268
H         57.02520        50.88281         2.78277
H         59.64653        23.46863        -2.82214
H         59.99210        49.85673        -0.52011
H         61.71799        24.73048        -3.35296
H         61.68404        27.20676        -3.44018
H         61.76592        29.03152        -2.60461
H         61.78446        31.43279        -2.33392
H         61.82375        33.32714        -2.40294
H         61.88973        35.73090        -2.11869
H         61.91536        37.62134        -1.98122
H         61.94809        40.03766        -1.84387
H         61.93698        41.93156        -1.89292
H         61.94390        44.34945        -1.78236
H         61.95227        46.22347        -1.71971
H         62.00864        48.65774        -1.36868
