         420
 CSIRO Nanostructure Databank - Neutral Graphene Oxide Data Set
C         27.92056        27.32295        -0.49859
C         27.89794        28.74744        -0.48068
C         26.67032        29.45115        -0.47107
C         27.86548        31.57092        -0.48754
C         26.66064        30.83288        -0.47417
C         27.81657        33.05088        -0.57222
C         26.62889        33.78007        -0.11481
C         27.86688        35.89158         0.04793
C         26.66408        35.12937         0.11088
C         27.83369        37.34289         0.47771
C         26.61718        38.10910         0.03641
C         27.85092        40.21346         0.11371
C         26.63817        39.47680        -0.01738
C         27.90572        41.71277         0.34768
C         26.62271        42.48015         0.13212
C         27.90879        44.53240        -0.25571
C         26.65922        43.81262        -0.10689
C         27.92868        45.97642        -0.24939
C         30.36112        27.33179        -0.50973
C         29.11173        26.64192        -0.51558
C         30.36439        28.74933        -0.48496
C         29.12700        29.46905        -0.47724
C         30.36495        31.62582        -0.42160
C         29.10859        30.89871        -0.47775
C         30.39165        33.04006        -0.41542
C         29.13391        33.81691        -0.56719
C         30.32356        35.94716        -0.05843
C         29.10117        35.24906        -0.17381
C         30.32514        37.37429         0.08100
C         29.10084        38.09153         0.15886
C         30.33577        40.23681        -0.02228
C         29.08545        39.50668         0.09464
C         30.35529        41.63326        -0.18461
C         29.04434        42.32425        -0.47431
C         30.35649        44.49895        -0.45375
C         29.11279        43.82680        -0.35201
C         30.36852        45.97683        -0.78950
C         29.07421        46.66717        -0.45137
C         32.84160        24.50996        -0.41480
C         31.64417        25.19195        -0.50584
C         32.84824        27.31796        -0.55165
C         31.61294        26.60812        -0.52872
C         32.83690        28.75675        -0.45016
C         31.60815        29.46955        -0.43328
C         32.83662        31.61268        -0.27380
C         31.59855        30.90051        -0.36053
C         32.83958        33.04661        -0.20605
C         31.61571        33.73860        -0.28236
C         32.81099        35.88832         0.20357
C         31.60631        35.24537        -0.44109
C         32.80841        37.38741         0.30813
C         31.54982        38.10939         0.08575
C         32.81456        40.23608         0.00993
C         31.57004        39.51695         0.03503
C         32.81492        41.64850        -0.10154
C         31.57214        42.35173        -0.21419
C         32.82659        44.49969        -0.30049
C         31.57599        43.78926        -0.35159
C         32.81828        45.93825        -0.27662
C         31.62554        46.66937        -0.30314
C         32.76905        48.71450         0.43174
C         31.62126        48.03568         0.11237
C         35.28227        23.34354         0.80860
C         35.29129        24.40756        -0.12762
C         34.08527        25.18061        -0.46588
C         35.31181        27.37689        -0.72997
C         34.08743        26.59816        -0.64110
C         35.32197        28.76199        -0.41745
C         34.06509        29.48646        -0.34118
C         35.37133        31.63372        -0.42078
C         34.06155        30.88656        -0.27483
C         35.30369        33.04877         0.10022
C         34.11392        33.75282        -0.00616
C         35.27594        35.93831         0.07437
C         34.10908        35.19843         0.09157
C         35.28521        37.39147         0.04452
C         34.07684        38.11080         0.15827
C         35.29120        40.23471        -0.04194
C         34.06001        39.52147         0.04337
C         35.28555        41.65882        -0.09028
C         34.05650        42.37065        -0.12803
C         35.31474        44.50686        -0.05825
C         34.05645        43.79976        -0.19028
C         35.34541        45.91700         0.03871
C         34.10243        46.65316        -0.21789
C         35.33602        48.80930         0.53730
C         34.07359        48.16725         0.09148
C         35.35643        50.19663         0.74851
C         37.74054        23.26022         0.80770
C         36.47192        22.74063         1.18684
C         37.79000        24.41044        -0.03532
C         36.55046        24.77308        -0.62072
C         37.80798        27.36752        -0.78293
C         36.55526        26.79555        -1.06792
C         37.77253        28.76328        -0.51612
C         36.55887        29.43850        -0.32527
C         37.85823        31.59928        -0.04596
C         36.55824        30.86508         0.17637
C         37.91970        33.00607         0.49191
C         36.56303        33.73480         0.44891
C         37.78839        35.89224        -0.22932
C         36.55514        35.23821         0.28144
C         37.74414        37.38201        -0.42061
C         36.50184        38.10922        -0.10681
C         37.77448        40.23365        -0.23876
C         36.52244        39.51594        -0.10750
C         37.76098        41.63107        -0.21750
C         36.53444        42.36013        -0.12795
C         37.79251        44.47706         0.15276
C         36.54036        43.77574        -0.04976
C         37.74646        45.88110         0.48082
C         36.55552        46.61332         0.37792
C         37.74378        48.76901         0.88500
C         36.54216        48.06627         0.61078
C         37.76967        50.17804         1.02171
C         36.54789        50.87624         0.97018
C         40.16927        20.72853         2.17685
C         38.99495        21.40334         1.93441
C         40.18624        23.30849         0.92259
C         38.98092        22.67024         1.24697
C         40.21404        24.57512         0.25448
C         39.00829        25.17777        -0.21632
C         40.25809        27.28149        -0.53343
C         39.03589        26.57815        -0.61729
C         40.30643        28.74491        -0.74711
C         39.01379        29.52449        -0.68385
C         40.31309        31.63516        -0.29350
C         39.03119        30.95659        -0.33246
C         40.33546        33.08395        -0.24036
C         39.10650        33.79759        -0.04995
C         40.26592        35.93547        -0.52907
C         39.08490        35.18208        -0.19736
C         40.22117        37.34413        -0.62525
C         39.02388        38.10604        -0.45116
C         40.27962        40.23336        -0.38529
C         39.02015        39.50486        -0.38116
C         40.29140        41.63367        -0.22709
C         39.02397        42.40641        -0.49496
C         40.27141        44.38264         0.64020
C         39.00114        43.79123         0.08633
C         40.29566        45.88183         0.55413
C         39.01275        46.54028         0.85854
C         40.28129        48.74866         0.86115
C         39.00953        48.03241         1.06034
C         40.26583        50.18936         0.98836
C         39.04837        50.88156         1.17304
C         40.28343        52.96321         1.51793
C         39.08910        52.27617         1.44576
C         42.62605        20.61574         1.99553
C         41.42298        21.31437         1.86162
C         42.71655        23.21685         0.81840
C         41.46129        22.78065         1.52998
C         42.72093        24.54672         0.29558
C         41.47501        25.24999         0.10645
C         42.74141        27.33783        -0.30362
C         41.49452        26.61930        -0.25268
C         42.75190        28.76824        -0.36071
C         41.54219        29.48932        -0.43403
C         42.77746        31.64209         0.04399
C         41.50759        30.90507        -0.31253
C         42.79357        33.06880        -0.47213
C         41.53398        33.78063        -0.49839
C         42.71715        35.88587        -0.93775
C         41.52512        35.21856        -0.67381
C         42.74623        37.34242        -1.13040
C         41.44290        38.10412        -0.94070
C         42.74070        40.20952        -0.55235
C         41.49891        39.53156        -0.57947
C         42.75331        41.61478        -0.28465
C         41.52553        42.32395        -0.11544
C         42.74210        44.43408         0.23117
C         41.54393        43.72870         0.17244
C         42.75672        45.89342         0.37208
C         41.47209        46.59983         0.47471
C         42.69109        48.80676         0.35685
C         41.44650        48.04886         0.59325
C         42.73546        50.23045         0.74146
C         41.50902        50.90124         1.00892
C         42.76147        52.98373         1.32038
C         41.51679        52.29841         1.28594
C         43.84047        21.18710         1.60146
C         45.17276        22.96989         0.43222
C         43.89160        22.45514         0.97130
C         45.19247        24.45228        -0.03326
C         43.93910        25.21286         0.01894
C         45.23624        27.28663        -0.32664
C         43.97612        26.61681        -0.20877
C         45.25762        28.73627        -0.74245
C         44.00200        29.48992        -0.38195
C         45.26078        31.59956        -0.37325
C         44.02384        30.87237        -0.31506
C         45.25812        33.01856        -0.49842
C         43.99098        33.71811        -0.69434
C         45.24928        35.90933        -1.14500
C         43.95549        35.10580        -1.31991
C         45.22344        37.37665        -0.93001
C         44.01365        38.08212        -0.91538
C         45.21926        40.21315        -0.61623
C         43.98553        39.49378        -0.70914
C         45.22073        41.62637        -0.38538
C         43.98781        42.33067        -0.21060
C         45.22653        44.41977         0.16782
C         43.98578        43.73269         0.03861
C         45.24331        45.84667         0.68320
C         43.95218        46.57485         0.40127
C         45.25868        48.78647         0.48165
C         43.99685        48.04251         0.26835
C         45.22546        50.20224         0.60316
C         43.96117        50.91785         0.79031
C         43.94133        52.31241         1.09060
C         47.62274        23.10164         0.65962
C         46.45948        22.43154         0.87996
C         47.66718        24.47322         0.21079
C         46.46869        25.17492         0.01583
C         47.71117        27.31424        -0.11005
C         46.45531        26.60085        -0.15260
C         47.71104        28.74636        -0.15916
C         46.50821        29.46932        -0.32632
C         47.72743        31.60491        -0.10132
C         46.50045        30.88192        -0.28754
C         47.71679        33.06235        -0.14906
C         46.47561        33.72569        -0.43318
C         47.63605        35.98537        -0.20591
C         46.50190        35.17298        -0.72842
C         47.66987        37.40357        -0.53423
C         46.47096        38.08025        -0.78130
C         47.68315        40.25156        -0.75748
C         46.45901        39.52706        -0.72324
C         47.67659        41.64011        -0.62948
C         46.45219        42.33477        -0.33593
C         47.69182        44.47296         0.10497
C         46.42368        43.72889        -0.00428
C         47.68008        45.95920         0.17456
C         46.50239        46.62865         0.32851
C         47.70708        48.82422         0.33367
C         46.48802        48.09337         0.41173
C         47.65772        50.23006         0.43324
C         46.45469        50.89730         0.59761
C         50.16319        24.50304         0.21061
C         48.92986        25.17969         0.15314
C         50.18158        27.32330         0.14238
C         48.93325        26.60871         0.05016
C         50.15385        28.73701         0.17527
C         48.94100        29.45814         0.02547
C         50.17871        31.61540         0.29221
C         48.91791        30.88704         0.06935
C         50.18437        33.11291         0.22911
C         48.91234        33.79264        -0.04157
C         50.21418        35.99404        -0.02563
C         48.93168        35.25281         0.08430
C         50.20508        37.39240        -0.19997
C         48.90815        38.18556        -0.15717
C         50.24789        40.22689        -0.77778
C         48.96364        39.45989        -1.01018
C         50.25403        41.66507        -1.09430
C         48.90779        42.40451        -0.95313
C         49.89358        44.79910        -1.03420
C         48.90498        43.84060        -0.52246
C         50.12277        46.02044        -0.48745
C         49.03272        46.65356         0.35629
C         50.09483        48.78171        -0.36718
C         48.96709        48.13779         0.08516
C         51.37286        25.19125         0.20157
C         52.70856        27.28487         0.20600
C         51.42856        26.59739         0.19402
C         52.71978        28.74805         0.43302
C         51.41048        29.47653         0.38850
C         52.65386        31.60755        -0.36082
C         51.43522        30.90544         0.13919
C         52.63716        33.10057        -0.08367
C         51.47414        33.82010         0.00420
C         52.65174        36.00768        -0.14412
C         51.44595        35.28514        -0.02737
C         52.66076        37.42002        -0.22439
C         51.42124        38.11267        -0.26998
C         52.67268        40.28164        -0.29156
C         51.41520        39.56542        -0.44215
C         52.70110        41.68842        -0.43102
C         51.54530        42.38216        -0.91810
C         52.76091        44.55087        -0.78988
C         51.70468        43.71599        -1.26644
C         52.66723        45.98014        -0.72856
C         51.39493        46.72290        -0.70553
C         51.33071        48.10471        -0.62663
C         55.15908        27.38259         0.15373
C         53.93695        26.65592         0.07925
C         55.20011        28.76651         0.18955
C         53.96150        29.52594         0.15988
C         55.24435        31.59121        -0.42887
C         53.95165        30.88085        -0.05617
C         55.24385        33.07557        -0.05923
C         53.93726        33.80528        -0.01730
C         55.21236        36.01241        -0.42841
C         53.91320        35.26468        -0.34424
C         55.16163        37.46966        -0.15875
C         53.92265        38.14695        -0.18011
C         55.11878        40.30054         0.10394
C         53.90061        39.57681        -0.09566
C         55.11437        41.74397         0.10725
C         53.91863        42.42850        -0.23602
C         55.10211        44.59658        -0.03472
C         53.92691        43.85764        -0.34462
C         55.05260        46.01128        -0.12490
C         53.87110        46.67066        -0.41981
C         56.44205        29.51061         0.24786
C         56.46575        30.84609         0.04473
C         56.47409        33.88058        -0.31140
C         56.47127        35.22509        -0.33935
C         56.34592        38.19500         0.09649
C         56.32339        39.56903         0.24728
C         56.28390        42.51125         0.39634
C         56.27762        43.88657         0.34645
O         36.56372        25.58004        -1.76537
O         54.48638        35.60817        -1.65665
O         46.25076        35.49945        -2.14715
O         43.30069        48.51739        -0.95194
O         41.97782        37.82511        -2.28758
O         50.15994        32.44964         1.56020
O         48.03584        35.72246         1.18749
O         54.65330        33.42804         1.23056
O         38.99155        47.12308         2.22970
O         49.44495        42.06357        -2.26487
O         50.72781        44.33808        -2.06039
O         48.75229        43.89674         0.95591
O         28.41932        33.56129        -1.82406
O         45.14656        23.32878        -0.97744
O         32.65293        36.50145         1.50877
O         36.54352        34.64115         1.61998
O         39.65529        29.22248        -1.97589
O         52.08589        29.12255         1.70777
O         37.54805        36.45836        -1.56573
O         34.20447        47.66784        -1.27817
O         55.30708        31.60173        -1.90780
H         55.51682        30.68863        -2.19993
O         40.21263        44.08864         2.09404
H         39.68518        44.80016         2.52041
O         41.54559        23.45817         2.86148
H         42.29651        23.04620         3.34090
O         49.34351        46.48903         1.77189
H         49.35012        45.51746         1.94244
O         42.76809        31.73789         1.51392
H         43.63043        32.11623         1.78847
O         45.29406        45.73979         2.14988
H         46.14023        45.30408         2.38866
O         35.64429        31.73963        -1.85153
H         34.86188        32.14095        -2.28512
O         39.03826        42.61072        -1.96597
H         39.01148        41.72339        -2.38495
O         52.55125        31.54601        -1.85252
H         53.45815        31.74860        -2.20077
O         28.26146        41.88030         1.75555
H         27.49160        41.60742         2.29664
O         45.29150        28.70718        -2.22296
H         45.25592        29.63709        -2.53393
O         36.35714        30.79217         1.61766
H         37.01099        31.39560         2.05169
O         30.45940        46.03719        -2.26858
H         31.39597        45.87357        -2.51182
O         38.22765        32.80786         1.91906
H         37.89799        33.61480         2.38505
O         48.72507        38.59102         1.22956
H         48.56956        37.76543         1.74428
O         43.80424        34.87369        -2.75480
H         44.71452        34.86109        -3.13333
O         27.74572        37.29720         1.96809
H         27.93958        38.20221         2.29408
O         31.78922        35.49026        -1.87915
H         31.02401        35.09204        -2.34780
O         28.72978        42.04374        -1.87108
H         29.35851        42.54633        -2.43028
O         48.96234        39.05741        -2.40351
H         49.04219        39.87703        -2.94014
H         26.96740        26.77495        -0.50331
H         25.72561        28.88927        -0.47876
H         25.69723        31.35938        -0.49663
H         25.70390        33.22706         0.09775
H         25.74204        35.62861         0.44067
H         25.66269        37.58089        -0.09846
H         25.70021        40.01842        -0.21106
H         25.65624        41.98626         0.31393
H         25.72325        44.38986        -0.16026
H         26.98178        46.51068        -0.07827
H         29.08934        25.54486        -0.53580
H         29.03748        47.76435        -0.50385
H         32.82928        23.41486        -0.32319
H         30.71173        24.61351        -0.50338
H         32.70463        49.67088         0.96936
H         30.65698        48.52608         0.30476
H         34.33214        22.98244         1.22631
H         34.42151        50.76966         0.68200
H         36.42305        21.88299         1.87020
H         36.52009        51.96821         1.07624
H         40.14463        19.70833         2.58813
H         38.04425        20.91629         2.18718
H         40.28812        54.03908         1.74412
H         38.15483        52.82584         1.62131
H         42.61161        19.58068         2.36754
H         42.77353        54.06122         1.53868
H         44.75740        20.59169         1.70191
H         44.88141        52.87670         1.14207
H         48.56115        22.62629         0.97664
H         46.48898        21.46884         1.40929
H         48.58765        50.81370         0.40535
H         46.47553        51.99066         0.68942
H         50.18908        23.40590         0.24494
H         50.08065        49.87128        -0.51766
H         52.30348        24.60856         0.23409
H         52.21932        48.72604        -0.80338
H         56.10416        26.82012         0.13756
H         53.99717        25.56713        -0.05516
H         55.95825        46.59322         0.09951
H         53.86963        47.76875        -0.38483
H         57.36743        28.96712         0.49189
H         57.41945        31.38923         0.10940
H         57.43364        33.34664        -0.37918
H         57.42697        35.75865        -0.45010
H         57.30701        37.66749         0.16069
H         57.27090        40.09390         0.42534
H         57.21244        42.00008         0.68404
H         57.18911        44.45145         0.58957
