         651
 CSIRO Nanostructure Databank - Neutral Graphene Oxide Data Set
C          6.05818        31.84503         0.86544
C          6.08766        33.20825         0.96444
C          8.42421        27.51327         0.74497
C          8.46350        28.90549         0.29844
C          7.27136        29.69841         0.56309
C          8.38969        31.83305        -0.01449
C          7.19297        31.06414         0.40622
C          8.17227        33.28693        -0.30623
C          7.17996        33.99641         0.41408
C          8.40251        36.09175        -0.06191
C          7.26338        35.40457         0.44761
C          8.54909        37.51237         0.01972
C         11.15983        23.32255         1.41884
C         10.63544        24.41423         0.70112
C          9.54135        25.24806         1.01698
C         11.13674        27.45026        -0.41488
C          9.26740        26.48365         0.34376
C         10.94059        28.86036        -0.11833
C          9.61343        29.54563        -0.18523
C         10.88876        31.67270        -0.86795
C          9.65773        31.03993        -0.28824
C         10.92028        32.92468        -1.49242
C          9.07667        34.04340        -1.06648
C         10.80228        35.97795        -0.93887
C          9.38462        35.38458        -0.81854
C         10.78183        37.48657        -1.11359
C          9.63678        38.18859        -0.55743
C         10.77850        40.32628        -0.94905
C          9.65265        39.60807        -0.54749
C         10.78527        41.74350        -0.85609
C         13.82164        19.33382         2.09260
C         13.77248        20.65800         1.67996
C         12.56750        21.38995         1.69264
C         13.67773        23.38608         0.76469
C         12.44137        22.70623         1.20803
C         13.64657        24.77590         0.33570
C         12.49028        25.39962        -0.13729
C         13.58369        27.59691        -0.17318
C         12.37134        26.82158        -0.23146
C         13.51297        28.97030        -0.41047
C         12.26531        29.67083        -0.14507
C         13.40537        31.84423        -0.92724
C         12.18625        31.13017        -0.44564
C         13.30410        33.17708        -1.57504
C         11.99917        33.82339        -1.52800
C         13.18135        36.06149        -1.80141
C         11.83916        35.29295        -1.87706
C         13.16688        37.43904        -1.83268
C         11.91525        38.17139        -1.53652
C         13.12222        40.33827        -1.68420
C         11.96001        39.62279        -1.42878
C         13.18559        41.75832        -1.37958
C         11.95817        42.47682        -1.03296
C         13.15192        44.63365        -0.91622
C         11.96096        43.89562        -0.90592
C         13.22730        46.02981        -0.73759
C         16.29644        15.29837         3.25026
C         16.37573        16.65417         2.88759
C         15.14156        17.31588         2.52949
C         16.29323        19.48255         2.29493
C         15.07468        18.67268         2.28527
C         16.28418        20.74580         1.77138
C         15.02568        21.26887         1.09620
C         16.16289        23.52577         0.93568
C         14.92649        22.77475         0.96676
C         16.09270        24.92864         0.66379
C         14.86980        25.55401         0.34233
C         16.03152        27.73359        -0.16334
C         14.83928        26.93449        -0.02350
C         16.00203        29.02254        -0.62729
C         14.71075        29.65603        -0.90685
C         15.89416        31.90392        -1.33258
C         14.65749        31.10772        -1.21887
C         15.86367        33.24052        -1.60339
C         14.56214        33.92820        -1.80063
C         15.76075        36.09556        -2.07936
C         14.52636        35.40270        -1.53082
C         15.63485        37.51277        -2.27690
C         14.41601        38.16384        -2.08379
C         15.61268        40.34873        -1.88268
C         14.32532        39.66308        -2.32717
C         15.62964        41.86217        -1.97512
C         14.38490        42.44623        -1.34911
C         15.70684        44.58598        -0.97606
C         14.41244        43.85870        -0.94305
C         15.69333        46.05946        -1.29961
C         14.45265        46.74941        -0.77871
C         15.76174        48.84064        -0.52825
C         14.52332        48.11085        -0.52418
C         15.76175        50.20567        -0.22884
C         18.25710        11.01994         2.67261
C         18.39299        12.41968         2.89204
C         17.30292        13.17841         3.35979
C         18.76876        15.23222         3.62989
C         17.41667        14.56871         3.90640
C         18.79833        16.73805         3.48086
C         17.56023        17.41555         3.05308
C         18.78598        19.65482         2.77891
C         17.46411        18.93515         3.09272
C         18.72332        20.97869         2.10512
C         17.50255        21.55513         1.72045
C         18.61685        23.82678         1.48563
C         17.41222        22.91073         1.26948
C         18.58062        24.97597         0.50976
C         17.32481        25.75106         0.66592
C         18.56977        27.80070        -0.35005
C         17.33654        27.16601         0.20530
C         18.52208        29.13219        -0.77534
C         17.23825        29.89065        -0.56909
C         18.35546        31.81925        -1.89588
C         17.12545        31.10482        -1.46052
C         18.26370        33.28351        -2.05420
C         17.07515        33.97941        -1.92369
C         18.22743        36.14994        -2.46399
C         16.98343        35.41996        -2.17575
C         18.18705        37.51844        -2.63238
C         16.87409        38.28520        -2.71458
C         18.16355        40.37687        -1.86782
C         16.90280        39.61555        -1.97304
C         18.15723        41.71946        -1.55546
C         16.92279        42.49423        -1.50002
C         18.19695        44.53882        -0.76511
C         16.95663        43.82761        -1.23080
C         18.18974        46.03536        -1.03991
C         17.01804        46.74133        -0.99645
C         18.22899        48.87342        -0.62413
C         17.01947        48.17917        -0.78434
C         18.22679        50.22592        -0.19029
C         16.97428        50.91664        -0.04490
C         18.15572        52.96317         0.61555
C         16.96297        52.28562         0.29265
C         18.13921        54.33210         0.98894
C         20.31037         6.59742         1.87396
C         20.42195         7.94625         2.24681
C         19.29529         8.77748         2.38010
C         20.65641        10.83469         2.28599
C         19.39280        10.20380         2.47343
C         20.78307        12.24722         2.30976
C         19.68101        13.02629         2.71301
C         21.10847        15.10973         2.51773
C         19.91169        14.43849         3.05332
C         21.42665        16.52816         2.98989
C         20.14303        17.41799         3.22692
C         21.35443        19.52796         2.25047
C         20.11300        18.90071         2.85242
C         21.28650        20.94545         1.78514
C         20.00715        21.71615         1.96521
C         21.14337        23.70140         0.75795
C         19.98074        23.13865         1.51598
C         21.09720        24.97470         0.19818
C         19.80193        25.65025         0.00236
C         20.95977        27.70398        -0.87526
C         19.77726        27.07002        -0.41159
C         20.90877        29.04403        -1.32334
C         19.68799        29.79047        -1.29691
C         20.72556        31.63072        -2.72827
C         19.66025        31.14008        -1.75873
C         20.67127        33.16119        -2.96854
C         19.45355        33.95634        -2.59951
C         20.73698        36.06730        -2.62961
C         19.51003        35.43597        -2.53780
C         20.80462        37.54494        -2.90751
C         19.45539        38.28358        -2.73623
C         20.65933        40.11788        -1.40502
C         19.43755        39.68997        -2.19676
C         20.61502        41.60960        -1.06684
C         19.40439        42.42007        -1.30691
C         20.71048        44.48833        -0.99808
C         19.45678        43.78975        -1.11671
C         20.74587        45.95579        -1.11119
C         19.47167        46.73768        -1.44615
C         20.74238        48.80306        -0.31551
C         19.53933        48.29238        -1.10491
C         20.69948        50.19316         0.12914
C         19.44687        50.89725         0.15014
C         20.57062        52.88123         1.12833
C         19.40116        52.24246         0.60634
C         20.49285        54.20641         1.59799
C         19.29526        54.96351         1.46612
C         20.44973        57.02995         2.18285
C         19.29405        56.36489         1.81820
C         20.45175        58.44053         2.47866
C         22.38912         3.73565         0.61374
C         21.28462         4.48255         1.01971
C         22.75404         6.35176         1.56235
C         21.44838         5.80574         1.51016
C         23.01909         7.66457         2.25024
C         21.77460         8.53338         2.43662
C         23.12156        10.63895         1.79445
C         21.88317        10.03057         2.30550
C         23.15781        12.06001         1.61874
C         22.03993        12.87717         1.98689
C         23.35711        14.92101         1.48626
C         22.14756        14.31104         2.00780
C         23.44413        16.31895         1.31679
C         22.49737        17.19116         2.07911
C         23.33481        19.19641         0.65097
C         22.47832        18.65443         1.76664
C         23.41519        20.68654         0.49882
C         22.33498        21.50440         0.89105
C         23.45627        23.46655        -0.07416
C         22.31905        22.88750         0.56458
C         23.44997        24.84319        -0.46773
C         22.25033        25.60141        -0.38383
C         23.37082        27.50029        -1.45862
C         22.20573        26.93488        -0.89090
C         23.31268        28.85318        -2.06996
C         22.14946        29.73550        -1.75655
C         23.29812        31.69465        -3.12444
C         22.10513        31.09353        -2.39601
C         23.29042        33.20777        -3.25228
C         21.94429        33.97627        -3.33226
C         23.22401        36.00882        -2.47417
C         22.00287        35.35131        -2.68983
C         23.18385        37.44036        -2.11617
C         22.01785        38.17624        -2.23785
C         23.17457        40.22147        -1.31576
C         21.98447        39.68096        -2.07397
C         23.15955        41.56418        -0.89347
C         21.89516        42.33182        -0.82412
C         23.11552        44.47407        -0.41199
C         21.91920        43.80843        -0.86259
C         23.10138        45.81293        -0.07772
C         21.98817        46.64039        -0.56771
C         23.18131        48.69152         0.18162
C         21.89284        48.06133        -0.17094
C         23.16682        50.18428         0.51983
C         21.85761        50.84757         0.61823
C         23.00590        52.79849         1.66799
C         21.81698        52.15737         1.16538
C         22.94854        54.11908         2.15709
C         21.62177        54.78668         2.39740
C         22.88004        56.93710         2.62395
C         21.69798        56.29221         2.33762
C         22.93068        58.43089         2.57395
C         21.61591        59.11200         2.78409
C         22.78506        61.08857         3.62718
C         21.62403        60.48398         3.19784
C         23.67335         4.28090         0.65161
C         25.17127         6.21775         1.08985
C         23.87319         5.60502         1.11662
C         25.32542         7.60530         1.24059
C         24.18120         8.39983         1.61191
C         25.40579        10.37689         0.81602
C         24.21294         9.79305         1.46824
C         25.45995        11.87226         0.66431
C         24.33993        12.68764         1.14172
C         25.62570        14.69423         0.51797
C         24.43691        14.09580         1.04839
C         25.63446        16.08895         0.21447
C         24.50959        16.88753         0.57535
C         25.60514        18.92781        -0.58119
C         24.41535        18.30395         0.11390
C         25.77701        20.43948        -0.39451
C         24.53754        21.26047        -0.11917
C         25.79240        23.29685        -0.85748
C         24.60077        22.66042        -0.34312
C         25.80868        24.65447        -1.15711
C         24.61021        25.43414        -1.04114
C         25.78451        27.31154        -2.15904
C         24.55457        26.74643        -1.56686
C         25.83876        28.74048        -2.62569
C         24.53661        29.48123        -2.67529
C         25.88249        31.67231        -2.72190
C         24.60726        30.95865        -2.99675
C         25.95879        33.16253        -3.06100
C         24.60494        33.93566        -3.05696
C         25.69975        35.97245        -2.12163
C         24.52192        35.33568        -2.53823
C         25.62704        37.36628        -1.72828
C         24.43053        38.08652        -1.71842
C         25.50497        40.10248        -0.68232
C         24.37583        39.47898        -1.26808
C         25.43690        41.39872        -0.12640
C         24.28940        42.18058        -0.32999
C         25.33718        44.22684         0.75620
C         24.40540        43.69517        -0.31385
C         25.43611        45.69506         0.91851
C         24.12299        46.42736         0.86768
C         25.47950        48.53253         1.10289
C         24.30797        47.90440         0.67246
C         25.48801        49.96284         1.32383
C         24.33717        50.72057         1.21941
C         25.37637        52.64425         2.33307
C         24.27535        52.08754         1.71219
C         25.31631        53.99516         2.87985
C         24.10595        54.79243         2.62966
C         25.30544        56.89533         3.20533
C         24.10935        56.19113         2.84362
C         25.26467        58.26041         3.46476
C         24.08186        59.03717         3.31088
C         24.00107        60.35844         3.72757
C         26.59059         8.24244         1.00300
C         27.90319        10.32108         0.64733
C         26.68211         9.62262         0.83714
C         27.97973        11.72070         0.47769
C         26.76626        12.51698         0.48387
C         28.05202        14.48628        -0.25827
C         26.79547        13.89009         0.31502
C         28.07333        15.98557        -0.20047
C         26.85638        16.68477        -0.27935
C         28.19963        18.68917        -0.94988
C         26.85987        18.07794        -0.77357
C         28.36958        19.93916        -1.56824
C         26.59849        21.14189        -1.44402
C         28.16978        23.06478        -1.74720
C         26.89714        22.48003        -1.32267
C         28.23805        24.45026        -1.74988
C         27.04034        25.26890        -1.60688
C         28.31326        27.32504        -2.32908
C         27.05062        26.61658        -1.90078
C         28.24667        28.83003        -2.15094
C         27.09116        29.51362        -2.39644
C         28.31919        31.69664        -2.26215
C         27.04429        30.98315        -2.41593
C         28.29186        33.14445        -2.27710
C         27.10020        33.87444        -2.37116
C         28.18757        35.98824        -1.73075
C         27.01453        35.29409        -2.10606
C         28.17404        37.37609        -1.35518
C         26.89410        38.09007        -1.50062
C         28.01310        40.05831        -0.32165
C         26.81931        39.49962        -0.93722
C         27.91663        41.31657         0.44128
C         26.59123        41.97238         0.60231
C         27.76680        44.07874         1.53855
C         26.50968        43.38931         1.10099
C         27.81679        45.54492         1.62920
C         26.60360        46.31678         1.36173
C         27.81922        48.39531         1.97334
C         26.63994        47.75423         1.48449
C         27.90095        49.77935         2.10231
C         26.77326        50.67171         1.66122
C         27.90326        52.61857         2.67023
C         26.60209        51.81882         2.65991
C         27.87469        54.00021         2.85022
C         26.64029        54.70328         3.19028
C         26.66181        56.22246         3.26870
C         29.22656        12.40849         0.45104
C         30.49958        14.52226         0.29764
C         29.30743        13.79995         0.22590
C         30.55770        15.93431         0.03660
C         29.33042        16.64266        -0.22942
C         30.61874        18.74427        -0.55163
C         29.38044        18.04102        -0.51784
C         30.65235        20.13913        -0.87414
C         29.45965        20.78152        -1.35302
C         30.74272        22.96751        -1.63737
C         29.42561        22.22152        -1.79561
C         30.79333        24.46345        -1.78767
C         29.49598        25.20639        -1.93033
C         30.77570        27.39345        -1.76817
C         29.46333        26.68029        -1.55156
C         30.76671        28.75441        -1.87439
C         29.48105        29.54276        -1.65473
C         30.79710        31.65859        -1.94368
C         29.52516        31.00230        -2.06847
C         30.92476        33.16320        -2.15819
C         29.57212        33.87594        -2.25146
C         30.78043        36.04731        -1.52347
C         29.50856        35.34525        -1.93594
C         30.67364        37.49321        -1.11532
C         29.31944        38.08394        -0.96541
C         30.39648        40.07462         0.17889
C         29.23051        39.41107        -0.39779
C         30.40588        41.40127         0.52593
C         29.13884        42.19822         0.36515
C         30.31516        44.20574         1.24774
C         29.09474        43.39859         1.28021
C         30.31469        45.49303         1.82005
C         29.03341        46.15555         1.95476
C         30.29798        48.28386         2.68583
C         28.98171        47.57350         2.38384
C         30.31581        49.74081         2.59138
C         29.12846        50.46191         2.44585
C         29.10557        51.89463         2.55992
C         31.76380        16.65235         0.07193
C         33.03420        18.78763        -0.11904
C         31.83018        18.05719        -0.19734
C         33.06739        20.19673        -0.32951
C         31.86917        20.84692        -0.74366
C         33.00139        23.10627        -0.35121
C         31.81325        22.31957        -0.81033
C         33.02938        24.58830        -0.58063
C         31.95991        25.24839        -1.33788
C         33.26121        27.33378        -1.42905
C         31.99964        26.62606        -1.53292
C         33.28869        28.76029        -1.64353
C         32.05348        29.49607        -2.12998
C         33.20046        31.66391        -1.36572
C         31.98034        30.95897        -1.74185
C         33.17582        33.02180        -1.10000
C         31.84293        33.74902        -1.05927
C         33.03672        35.88210        -0.47076
C         31.96609        35.26857        -1.06478
C         33.09344        37.33616        -0.19661
C         31.84992        38.14093        -0.43870
C         32.82477        40.04629         0.87158
C         31.57693        39.25320         0.55496
C         32.90834        41.44272         0.87431
C         31.63244        42.14374         0.73727
C         33.25881        44.44877         1.57458
C         31.47703        43.53970         0.74603
C         32.82318        45.41314         2.43186
C         31.56052        46.16777         2.23663
C         31.53725        47.48904         2.60561
C         34.26303        20.95837        -0.16601
C         35.48220        23.09738        -0.11926
C         34.29428        22.38099        -0.18968
C         35.55775        24.58674         0.14725
C         34.31708        25.34697        -0.34105
C         35.73431        27.19021        -1.25823
C         34.41855        26.63017        -1.04732
C         35.74363        28.77395        -1.36221
C         34.45315        29.47560        -1.39752
C         35.53165        31.49283        -0.52817
C         34.43178        30.90288        -1.14511
C         35.53607        32.88802        -0.20817
C         34.40237        33.72031        -0.66208
C         35.32318        35.66807         0.80633
C         34.30038        35.13877        -0.17919
C         35.33753        37.17415         1.20720
C         34.04466        37.86588         0.81829
C         35.75761        40.20214         1.19258
C         33.87728        39.14430         1.27832
C         35.47566        41.46869         0.78938
C         34.19903        42.15953         1.12192
C         34.32292        43.45101         1.59559
C         36.85944        25.21477        -0.29227
C         38.16029        27.27547        -0.69991
C         36.94502        26.51708        -0.74623
C         38.12253        28.68370        -0.58367
C         36.90906        29.38961        -0.77413
C         37.91075        31.38071         0.35438
C         36.65571        30.63264         0.00519
C         37.70127        32.63994         0.87297
C         36.60999        33.46691         0.45503
C         37.91141        35.74530         0.97979
C         36.60549        34.89113         0.90652
C         37.69033        37.02755         0.12907
C         36.57426        37.90465         0.65446
C         36.75323        39.25479         0.69042
C         39.29531        29.44567        -0.18517
C         40.44475        31.56913         0.25344
C         39.21705        30.76724         0.23167
C         40.58867        32.92242         0.36091
C         39.53252        33.82514         0.80879
C         39.16879        35.07009         0.42150
O         23.14219        18.52438        -0.63483
O         34.85320        39.67173         2.13643
O         17.51284        30.99671        -2.85802
O         30.29239        24.90129        -3.09707
O         30.39048        22.35447        -2.90302
O         35.63013        34.90579         2.01698
O         32.53383        44.35221         0.35768
O         28.47307        43.32467         2.58275
O         13.86408        33.38054        -2.96265
O         23.91934        31.12939        -4.30139
O         10.03355        26.72047        -0.83649
O         33.27033        25.33067         0.68506
O         22.42614        30.96976        -0.97291
O         19.48576        39.45739        -3.63569
O         16.15417        39.70701        -0.69772
O          9.73574        33.35931        -2.08209
O         25.88441        18.34825        -1.86678
O         29.39285        47.78470         3.76665
O         13.02327        31.93777         0.48093
O         21.94678         9.33837         3.64786
O         25.10173        10.98567        -0.48353
O         27.32002        20.40782        -2.36758
O         24.04260        33.71713        -4.38846
O         35.95308        27.89613        -2.49958
O         19.64638        19.71125         3.96734
O         23.52789        49.71645        -0.81992
O         27.01401        39.26025        -2.38581
O         19.76044        14.71908         4.54544
O         18.93681        24.73659        -0.87028
O         15.18850        44.18602         0.33466
O         21.80344        46.41762        -2.02355
O         19.80577        49.00228        -2.41812
O         25.82947        27.67622        -3.62712
O         21.88247        20.59627         3.09177
O         29.61112        34.87033        -3.33047
O         25.36715        43.51904         2.03739
O         17.40991        26.83922         1.64663
O         19.65524        33.43680        -3.98727
O         19.58774        17.32275         4.56556
O         23.30654        58.75470         1.05986
O         31.90773        22.81697         0.58995
O         23.28495        18.15893         2.88073
O         11.65573        29.26987         1.11412
O         31.03574        37.12559        -2.48180
O         14.52993        30.15056        -2.33167
O         21.08433        41.82698         0.32204
O         23.56455        28.80051        -3.51294
O         34.91751        34.85529        -1.50040
O         27.16590        41.12653         1.67569
O          9.43168        31.68702         1.04121
O         38.65341        33.20854         1.73359
O         25.85660        54.08615         4.26718
O         11.35489        24.67548        -0.48717
O         20.28919        22.81344         2.92033
O         32.97556        38.29049        -1.33091
O         17.22372        14.54696         5.35065
H         18.11424        14.43468         5.75311
O         31.59892        33.31044        -3.41643
H         31.16494        34.05332        -3.90148
O         15.55471        42.20527        -3.39096
H         15.00437        41.52240        -3.84699
O         11.36783        35.41344        -3.23549
H         11.93292        34.84341        -3.80001
O         15.10529        20.77633        -0.29037
H         14.29462        21.07422        -0.75543
O         35.45342        37.24199         2.63634
H         36.32997        36.85687         2.87580
O         28.54082        27.07713        -3.73423
H         27.68750        27.25897        -4.19683
O         14.67111        35.47312        -0.06990
H         14.60420        36.41436         0.19861
O         21.28789        54.46820         3.80760
H         22.03258        54.79033         4.36003
O         14.18359        39.87538        -3.76595
H         13.37138        39.41425        -4.06429
O         26.39328        51.27659         3.98138
H         26.23111        52.04276         4.57909
O         32.20177        29.52554        -3.59392
H         32.19088        28.59948        -3.91776
O         31.19576        33.41751         0.20700
H         31.81868        33.60371         0.94085
O         23.51973        46.26414         2.21159
H         23.77159        45.37526         2.54760
O         38.12281        36.14045         2.34821
H         38.28439        35.32052         2.86372
O         29.13502        26.78076        -0.13277
H         29.89646        26.43633         0.38226
O         18.39554        24.44002         2.77788
H         18.84589        23.86623         3.44417
O         35.59123        24.71312         1.60588
H         34.65014        24.76832         1.89918
O         36.12859        30.13046         1.31407
H         36.87203        29.68445         1.77500
O         20.41344        31.00598        -3.99702
H         19.58828        31.42831        -4.33185
O         18.56374        49.07931        -3.15774
H         18.45786        48.13515        -3.46142
O         25.12357        43.99971        -1.55895
H         24.50235        43.89083        -2.31020
O         27.19711        51.31207         0.41261
H         27.15173        50.64249        -0.30209
O         17.27172        30.44504         0.78715
H         17.33796        29.69799         1.42097
O         11.35979        35.76481         0.39261
H         10.75795        36.17424         1.04975
O         15.59162        46.11785        -2.75786
H         15.61021        47.06139        -3.02354
O         22.02197        40.29158        -3.39411
H         22.78927        39.91888        -3.87817
O         29.32702        29.58316        -0.18978
H         29.18293        28.64787         0.10532
O         26.42096        33.14756        -4.44439
H         25.62648        32.98992        -5.00934
O         19.39505        46.62301        -2.90237
H         20.30115        46.82402        -3.23771
O         17.14976        19.23897         4.48207
H         17.99720        19.14805         4.97991
O         29.12759        42.77456        -0.97635
H         29.31022        42.05953        -1.62321
O         28.00015        14.18764        -1.70186
H         27.17909        14.58730        -2.06074
O         18.15938        44.47064         0.71231
H         17.22140        44.34977         0.98666
O         16.71320        38.64981        -4.11476
H         16.96203        37.88023        -4.66778
O         22.05082        16.36041         4.27040
H         22.47367        17.21656         4.50546
O         23.48046         7.29508         3.59080
H         23.24840         8.05566         4.17541
O         22.22859        58.31103         0.24083
H         22.45252        57.36929         0.03955
O         26.58705        20.52097         0.83942
H         26.54241        21.43975         1.18207
O         21.11215        37.62369        -4.33187
H         20.87453        38.53916        -4.61220
O         20.55748        39.37438        -0.17060
H         20.82759        39.98706         0.55665
O         31.19108        38.53260         1.77910
H         30.97505        39.19651         2.46838
O         37.43401        36.63790        -1.22778
H         36.57343        36.16457        -1.29847
O         21.77680        34.32487        -4.72479
H         21.76985        33.50045        -5.25421
O         27.48359        56.73648         2.20460
H         26.92740        56.87191         1.41045
H          5.18267        31.29550         1.24406
H          5.23659        33.73900         1.41641
H          7.69769        27.29274         1.54273
H          6.39853        29.16746         0.97448
H          6.47602        35.98387         0.95210
H          7.75100        38.10514         0.49120
H         10.51176        22.84134         2.16898
H          8.97972        25.03232         1.93761
H          8.77765        40.14947        -0.15833
H          9.85729        42.26057        -0.56991
H         12.89366        18.79953         2.34744
H         11.67322        20.89749         2.10536
H         10.99889        44.41368        -0.77467
H         12.30068        46.58900        -0.53349
H         15.31986        14.79664         3.18748
H         14.22092        16.71458         2.50895
H         13.60914        48.65532        -0.24086
H         14.80594        50.72871        -0.07726
H         17.26901        10.55381         2.79873
H         16.33370        12.67474         3.49285
H         16.00338        52.82033         0.35012
H         17.19386        54.89196         0.93422
H         19.30768         6.16016         1.75362
H         18.29396         8.32270         2.33902
H         18.35223        56.92562         1.72376
H         19.48768        58.97115         2.50817
H         22.24557         2.70897         0.24877
H         20.27554         4.04930         0.96954
H         22.76512        62.13473         3.96291
H         20.67210        61.03446         3.21951
H         24.53601         3.68969         0.31303
H         26.03872         5.60818         0.79507
H         26.17959        58.76158         3.81581
H         24.87629        60.83379         4.19408
H         27.49169         7.61712         0.91472
H         28.83993         9.74334         0.66425
H         28.78941        54.59599         2.71155
H         27.17061        56.50970         4.22768
H         30.14902        11.84077         0.64766
H         31.43056        13.99982         0.56691
H         31.27639        50.27183         2.67188
H         30.06176        52.42381         2.69657
H         32.69586        16.11839         0.31128
H         33.96093        18.26947         0.16890
H         33.39507        45.63554         3.34496
H         32.47660        47.98245         2.89901
H         35.20332        20.42263         0.03162
H         36.42244        22.53349        -0.01895
H         36.17347        42.01172         0.13325
H         35.33253        43.78867         1.88304
H         37.77685        24.71059         0.04975
H         39.09555        26.75118        -0.45210
H         38.64156        37.61598         0.11805
H         37.67890        39.67136         0.25790
H         40.28092        28.96747        -0.29028
H         41.34863        31.00433        -0.03017
H         41.57337        33.35850         0.13041
H         39.76499        35.62456        -0.31679
