         762
 CSIRO Nanostructure Databank - Neutral Graphene Oxide Data Set
C         22.93697        24.67074         0.44557
C         21.78298        25.40916         0.85831
C         23.09488        27.47694         1.12968
C         21.82419        26.74618         1.12028
C         23.10771        28.96135         1.01540
C         21.98248        29.72159         1.39954
C         23.04594        31.80206         0.70644
C         21.95876        31.10872         1.26162
C         23.00579        33.25039         0.47775
C         21.97426        34.08091         0.99040
C         22.77412        36.04061        -0.23631
C         21.91505        35.45477         0.66803
C         22.70375        37.48950        -0.65969
C         21.52038        38.22887        -0.10731
C         22.87885        40.22993         0.26367
C         21.60878        39.53401         0.22183
C         22.86554        41.67651         0.62755
C         21.67933        42.49232         0.28485
C         22.89121        44.65338         0.57223
C         21.68558        43.83820         0.30840
C         22.90595        46.07902         0.15869
C         21.71390        46.80328         0.02603
C         22.96044        48.84725        -0.29829
C         21.74221        48.17689        -0.21855
C         25.34434        23.15371        -0.20414
C         25.34109        24.56643        -0.24118
C         24.15372        25.28018         0.23124
C         25.40148        27.44528        -0.03867
C         24.31894        26.69443         0.61453
C         25.38110        28.86476        -0.02019
C         24.24981        29.61824         0.51768
C         25.29253        31.70012        -0.29737
C         24.20988        31.05054         0.32839
C         25.14447        33.06993        -0.75041
C         23.99207        33.84037        -0.32579
C         25.23136        35.99472        -0.75492
C         23.89110        35.24749        -0.85295
C         25.21404        37.40999        -0.52823
C         24.04071        38.14413        -0.31188
C         25.39926        40.11370         0.52517
C         24.06444        39.53213         0.07745
C         25.45872        41.64818         0.65355
C         24.17212        42.40904         0.79843
C         25.43427        44.60151         0.17111
C         24.21976        43.91721         0.69297
C         25.38646        45.97953        -0.06697
C         24.15636        46.74151         0.02112
C         25.45050        48.87102        -0.24247
C         24.17573        48.15229        -0.17451
C         25.49787        50.27272        -0.10465
C         27.74865        23.11137        -0.52183
C         26.51791        22.44155        -0.35020
C         27.75695        24.51995        -0.72948
C         26.52753        25.26102        -0.60901
C         27.33538        27.49414        -1.47443
C         26.43031        26.73044        -0.71323
C         27.43341        28.89957        -1.36095
C         26.46727        29.56712        -0.59410
C         27.73289        31.73473        -1.03687
C         26.62775        31.02613        -0.29224
C         27.70087        33.09468        -1.18693
C         26.42850        33.84979        -1.14767
C         27.72122        35.99083        -0.90059
C         26.43263        35.31217        -0.95146
C         27.76490        37.38920        -0.80150
C         26.49446        38.13898        -0.71620
C         27.86367        40.25092        -0.27658
C         26.54068        39.58539        -0.33643
C         27.90218        41.63706        -0.14787
C         26.70277        42.39679         0.29112
C         27.85749        44.49545        -0.31064
C         26.65673        43.85814        -0.00123
C         27.88174        45.91842        -0.68897
C         26.57536        46.69067        -0.58198
C         27.89028        48.84689        -0.61283
C         26.65282        48.16398        -0.46037
C         27.88734        50.26713        -0.55574
C         26.69611        50.95171        -0.25945
C         30.20391        20.25818        -0.22324
C         29.02037        20.95636        -0.41944
C         30.21584        23.05623        -0.16073
C         28.99711        22.36463        -0.39945
C         30.25519        24.48251        -0.39915
C         29.07684        25.13071        -0.88490
C         30.45063        27.11407        -1.42429
C         29.26845        26.36429        -1.53331
C         30.53580        28.48325        -1.89065
C         28.58491        29.63574        -1.86702
C         30.14577        31.59774        -1.90986
C         28.85127        30.94839        -1.53402
C         30.21322        33.11330        -1.77358
C         28.92238        33.86395        -1.52081
C         30.18866        35.89765        -0.87375
C         28.95372        35.26500        -1.04711
C         30.25143        37.33670        -0.73743
C         29.01254        38.09039        -0.77584
C         30.28122        40.22967        -0.80069
C         29.02956        39.50207        -0.61623
C         30.34388        41.66402        -0.49149
C         29.13080        42.35942        -0.29683
C         30.33059        44.48855        -0.42445
C         29.10885        43.78521        -0.31634
C         30.34059        45.93327        -0.54778
C         29.16361        46.65814        -0.66268
C         30.36580        48.80573        -0.71070
C         29.15991        48.11334        -0.72626
C         30.42620        50.27440        -0.76312
C         29.13169        51.03899        -0.78676
C         30.34280        53.10808        -0.19652
C         29.19512        52.49952        -0.51587
C         32.76025        18.79112        -0.30224
C         32.65825        20.14271         0.30843
C         31.40833        20.92715         0.06600
C         32.60592        23.08114         0.57401
C         31.40393        22.33287         0.13726
C         32.65946        24.57687         0.29162
C         31.48035        25.19404        -0.34201
C         32.78134        27.31099        -0.61206
C         31.56970        26.54406        -0.75574
C         32.68165        28.83431        -0.66523
C         31.51693        29.34827        -1.50233
C         32.73474        31.56579        -1.77562
C         31.44765        30.78988        -1.89099
C         32.73431        33.04794        -1.41540
C         31.44838        33.78649        -1.29631
C         32.58694        35.70604        -0.19989
C         31.41430        35.10503        -0.88436
C         32.63747        37.23093        -0.01001
C         31.48727        37.98787        -0.54812
C         32.87443        40.15350        -0.49822
C         31.60133        39.41638        -0.80326
C         32.83701        41.62096        -0.24185
C         31.58316        42.35472        -0.38070
C         32.77253        44.51695         0.00793
C         31.55041        43.76900        -0.33967
C         32.89065        45.95437        -0.32627
C         31.64162        46.60408        -0.72774
C         32.92656        48.81638        -0.52077
C         31.66248        48.12070        -0.82988
C         32.88034        50.24929        -0.35778
C         31.69505        50.95369        -0.40273
C         32.88137        53.15423         0.01751
C         31.60170        52.36258         0.16682
C         32.95160        54.51855         0.05810
C         35.23053        18.76498        -0.05081
C         33.92940        18.14715        -0.41639
C         35.27574        20.18723         0.44574
C         33.92779        20.85158         0.68772
C         35.20558        23.12101         0.74720
C         33.90056        22.35581         0.83314
C         35.14925        24.52903         0.25979
C         33.97710        25.23321         0.08582
C         35.23698        27.35055        -0.39037
C         33.98553        26.65023        -0.31111
C         35.25206        28.86772        -0.51849
C         33.98273        29.52353        -1.03704
C         35.23658        31.64953        -1.70759
C         33.98553        30.81055        -1.47004
C         35.15898        32.92841        -0.83353
C         33.97572        33.60584        -0.79275
C         35.11683        35.61499         0.38085
C         33.86676        34.90987        -0.07565
C         35.11959        37.10976         0.63615
C         33.91907        37.89525         0.27097
C         35.14965        40.12014         0.66125
C         34.03809        39.34573         0.04055
C         35.22774        41.56853         0.43840
C         34.00625        42.27563         0.13208
C         35.28271        44.50400         0.43163
C         33.98998        43.74059         0.35996
C         35.36608        45.79545        -0.37881
C         34.09011        46.63957        -0.30783
C         35.36866        48.81522        -0.08102
C         34.12877        48.09802        -0.36799
C         35.41758        50.20292         0.00537
C         34.19604        50.99694        -0.40457
C         35.41713        53.09675         0.40335
C         34.11617        52.36796         0.22474
C         35.40953        54.55693         0.22666
C         34.20287        55.21117         0.10203
C         38.04232        16.07120         0.08104
C         36.86908        16.78541        -0.40031
C         37.95390        18.82609         1.22288
C         36.31693        17.80684         0.30705
C         37.79885        20.19728         1.03958
C         36.45096        20.88874         1.21733
C         37.67903        23.01347         0.53332
C         36.49342        22.35641         0.74230
C         37.71057        24.42715         0.06298
C         36.42079        25.17860        -0.12075
C         37.72377        27.28687        -0.35977
C         36.44829        26.65466        -0.25389
C         37.76907        28.63885        -0.95675
C         36.48270        29.35524        -1.26851
C         37.80627        31.54555        -1.29628
C         36.53338        30.83001        -1.57345
C         37.71442        32.89310        -0.65640
C         36.40861        33.48941        -0.23068
C         37.67358        35.75022        -0.07508
C         36.48478        34.91480         0.39722
C         37.81953        37.12912         0.56695
C         36.45796        37.82553         0.79393
C         37.68264        40.10095         0.67393
C         36.46601        39.33729         0.88788
C         37.65863        41.49258         0.82285
C         36.42962        42.22225         0.74855
C         37.84145        44.35501         0.49834
C         36.50816        43.70662         0.68716
C         37.89635        45.82059         0.27160
C         36.65842        46.58148        -0.14381
C         37.88322        48.75781         0.48390
C         36.64974        48.06714         0.00751
C         37.88332        50.20861         0.46320
C         36.65324        50.91892         0.23764
C         37.89262        53.05836         0.42419
C         36.68837        52.34511         0.29317
C         37.90501        54.50915         0.33289
C         36.69160        55.23621         0.14753
C         37.96230        57.29549        -0.07627
C         36.75119        56.62700        -0.06652
C         40.35763        14.42883         1.15489
C         40.27878        15.89547         1.23971
C         39.07892        16.64398         0.77217
C         40.34762        18.79874         0.74819
C         39.15118        18.09637         0.97505
C         40.22341        20.21379         0.58784
C         38.98537        20.91557         0.76354
C         40.16410        23.07142         0.55600
C         38.96267        22.33752         0.60906
C         40.14432        24.50612         0.45808
C         38.96653        25.20196         0.22193
C         40.18069        27.34949        -0.10175
C         38.94386        26.62239        -0.05975
C         40.20617        28.70343        -0.50143
C         39.03239        29.39251        -0.86967
C         40.21583        31.57536        -0.82825
C         39.04576        30.80876        -0.95385
C         40.17556        33.02918        -0.83445
C         38.93054        33.71500        -0.67326
C         40.17365        35.86568        -0.34248
C         38.85637        35.11322        -0.43488
C         40.01658        37.36141        -0.58740
C         38.88143        37.97896        -0.14161
C         40.02342        40.29341        -0.37481
C         38.79428        39.46037        -0.07343
C         40.18713        41.57963         0.38245
C         38.96534        42.20969         0.95439
C         40.28171        44.43383         0.99182
C         38.97440        43.69865         1.26571
C         40.28525        45.83618         1.04241
C         38.95655        46.56353         1.08477
C         40.28236        48.69063         1.03875
C         39.03494        48.03587         0.76235
C         40.22955        50.14865         1.24615
C         39.05992        50.91161         0.76921
C         40.32421        53.05015         0.90020
C         39.12676        52.34992         0.68446
C         40.39213        54.56234         0.89022
C         39.13194        55.21398         0.37382
C         40.45001        57.31339         0.10034
C         39.16645        56.60776         0.18600
C         40.45713        58.71993        -0.00263
C         42.78451        14.49721         1.48507
C         41.54610        13.78593         1.28166
C         42.84908        15.85984         1.45119
C         41.59136        16.65247         1.32153
C         42.91260        18.77898         1.13841
C         41.67682        18.01721         0.63555
C         43.18678        19.99978         0.59376
C         41.32577        21.02669         0.20742
C         42.73201        23.05719         0.54375
C         41.42583        22.38561         0.47879
C         42.71200        24.44833         0.56440
C         41.43062        25.20454         0.63795
C         42.73850        27.40343         0.26127
C         41.41336        26.70361         0.40942
C         42.76055        28.76481        -0.33713
C         41.48036        29.44686        -0.62853
C         42.67026        31.63191        -0.70813
C         41.48370        30.92377        -0.69562
C         42.65070        33.05901        -1.05305
C         41.36009        33.74660        -0.96865
C         42.58212        35.92854        -0.92218
C         41.26968        35.22358        -1.22351
C         42.54041        37.38755        -1.18529
C         41.21487        38.11207        -1.06160
C         42.56575        40.20603        -0.39765
C         41.27254        39.62386        -0.86647
C         42.69579        41.66995        -0.13971
C         41.41580        42.40612         0.13809
C         42.73331        44.44921         0.72938
C         41.48657        43.77104         0.68740
C         42.74096        45.81512         1.10706
C         41.51781        46.53402         1.11775
C         42.72696        48.69400         1.42779
C         41.47766        47.99204         1.21321
C         42.77758        50.11367         1.49582
C         41.51322        50.87322         1.55529
C         42.86381        53.04008         1.31062
C         41.53517        52.35840         1.38409
C         42.97742        54.33817         0.54780
C         41.69294        55.10570         0.22644
C         42.76223        57.31383        -0.55290
C         41.65982        56.58374        -0.06207
C         42.74565        58.70291        -0.72627
C         41.59760        59.41690        -0.38938
C         45.42510        16.02244         1.79963
C         44.07927        16.60596         1.85561
C         45.31708        18.87520         1.86555
C         44.03238        18.13425         1.86592
C         45.24622        20.36047         1.85544
C         44.13759        20.97084         1.07410
C         45.17041        23.18360         1.26147
C         43.99128        22.33839         0.87049
C         45.29037        24.47706         0.52782
C         43.98155        25.16721         0.28556
C         45.29797        27.35036        -0.21845
C         44.02923        26.65552         0.22806
C         45.28189        28.84367        -0.18496
C         43.98213        29.56730        -0.00998
C         45.22489        31.76974        -0.42995
C         43.94926        31.03723        -0.27086
C         45.22887        33.11267        -0.71232
C         43.95823        33.80652        -1.05018
C         45.20221        36.02160        -0.93756
C         43.91946        35.27571        -0.79286
C         45.19123        37.44438        -0.85672
C         43.83849        38.09757        -0.88508
C         45.47858        40.40103        -0.14654
C         43.62126        39.36943        -0.21831
C         45.24045        41.74902        -0.26571
C         43.98742        42.38761         0.10929
C         45.24614        44.50050         0.45639
C         43.97965        43.75005         0.41433
C         45.30355        45.78920         1.03853
C         44.01747        46.41932         1.66551
C         44.98988        48.69700         2.16577
C         43.91862        47.95328         1.66643
C         45.17388        50.07893         1.97735
C         44.01711        50.81175         1.61553
C         45.27307        52.94338         1.86380
C         44.10314        52.24504         1.53500
C         45.22633        54.40676         1.67853
C         44.30860        54.98134         0.74837
C         45.69859        57.01142         0.67148
C         44.64786        56.22214         0.18618
C         46.54838        16.77610         1.93171
C         47.77983        18.99916         2.06731
C         46.53266        18.23033         2.00219
C         47.78650        20.46251         2.52883
C         46.45145        21.16339         2.24738
C         47.72772        23.38698         1.88343
C         46.41370        22.63090         1.91542
C         47.78040        24.78235         1.31603
C         46.59235        25.25571         0.53382
C         47.82666        27.50046         0.28839
C         46.60936        26.67629         0.06454
C         47.81607        28.88233         0.09946
C         46.52902        29.60985         0.12168
C         47.77328        31.78668        -0.38794
C         46.49825        31.10620        -0.07114
C         47.72635        33.20903        -0.73381
C         46.45321        33.87404        -0.78383
C         47.60889        35.97735        -1.47542
C         46.40237        35.27940        -0.99442
C         47.53437        37.48733        -1.60976
C         46.37914        38.19869        -1.01866
C         47.63998        40.36797        -1.18214
C         46.52216        39.63792        -0.79779
C         47.63735        41.84737        -1.14596
C         46.35752        42.58585        -0.73584
C         47.69990        44.53651        -0.08434
C         46.43260        43.91743        -0.11451
C         47.76652        45.83354         0.50571
C         46.59766        46.40124         1.11119
C         47.86292        48.50578         1.50959
C         46.83238        47.62068         1.81347
C         47.80939        49.94083         1.89453
C         46.48533        50.74851         2.15658
C         47.77642        52.86243         2.33555
C         46.51175        52.24005         2.10742
C         47.97393        54.11489         2.96512
C         46.16447        55.27640         2.26498
C         46.39986        56.57228         1.79512
C         50.22179        19.12330         1.91467
C         49.00321        18.39475         1.89271
C         50.26815        20.51135         1.96057
C         49.01658        21.25635         2.06300
C         50.25119        23.44387         1.91150
C         48.99482        22.62368         1.90704
C         50.27822        24.83780         1.35769
C         49.07680        25.45822         0.99812
C         50.27688        27.53733         0.35298
C         49.05606        26.81776         0.54207
C         50.24495        28.92389        -0.01424
C         49.02761        29.63254        -0.02519
C         50.22253        31.82536        -0.42722
C         48.95457        31.07006        -0.29330
C         50.15350        33.13746        -1.14311
C         48.90335        33.91329        -1.05096
C         50.09851        35.96993        -1.80690
C         48.93204        35.29893        -1.44437
C         50.07199        37.41823        -2.17345
C         48.80212        38.22527        -1.94418
C         50.13226        40.43381        -1.68533
C         48.84259        39.71107        -1.73850
C         50.13759        41.78417        -1.34234
C         48.93572        42.53228        -1.00302
C         50.16864        44.55348        -0.29720
C         48.92540        43.86712        -0.52994
C         50.21489        45.82754         0.27622
C         49.01091        46.53462         0.59532
C         50.25212        48.68253         0.94258
C         49.03909        47.92074         0.94800
C         50.27336        50.04874         1.20615
C         48.98944        50.75093         1.43444
C         50.33788        52.81695         2.05815
C         49.01006        52.21335         1.81468
C         50.40056        53.99717         2.80355
C         49.23787        54.64017         3.24739
C         52.69733        20.58507         1.41445
C         51.52868        21.21555         1.80785
C         52.85693        23.40823         1.77087
C         51.56021        22.68048         2.01877
C         52.81845        24.86488         1.36441
C         51.51267        25.52990         1.08889
C         52.78069        27.46492         0.03382
C         51.50391        26.82677         0.55597
C         52.76379        29.00875         0.15483
C         51.50891        29.57668        -0.53708
C         52.71641        31.75776        -1.05217
C         51.51623        31.09220        -0.46796
C         52.69720        33.08237        -1.39434
C         51.40597        33.78305        -1.63688
C         52.63190        36.04900        -1.74243
C         51.40807        35.23395        -2.15180
C         52.73353        37.43159        -2.38711
C         51.36673        38.19307        -2.35544
C         52.70307        40.39217        -1.91928
C         51.35674        39.71326        -2.16454
C         52.69666        41.75802        -1.37272
C         51.42771        42.51235        -1.35258
C         52.72624        44.42884        -0.27291
C         51.42009        43.92043        -0.77146
C         52.79254        45.80888         0.32661
C         51.49420        46.48260         0.63354
C         52.76871        48.72621         0.65280
C         51.53050        47.95857         0.89157
C         52.73869        50.11667         0.83963
C         51.50726        50.78250         1.20332
C         52.78495        52.83624         1.61161
C         51.52869        52.14313         1.61243
C         53.93040        21.26834         1.22888
C         55.30578        23.34303         1.15060
C         54.06077        22.63445         1.39872
C         55.28781        24.77400         0.89371
C         54.07844        25.45758         0.86456
C         55.32628        27.61607         0.28961
C         54.04635        26.89991         0.63351
C         55.23374        28.94389        -0.37010
C         54.03391        29.61907        -0.42912
C         55.21277        31.60351        -1.58034
C         53.94044        30.92350        -1.14191
C         55.18725        33.07221        -1.92371
C         53.90827        33.83929        -1.81187
C         55.18478        36.05901        -1.93752
C         53.93519        35.32728        -1.44073
C         55.20096        37.43892        -1.99771
C         53.96365        38.21555        -1.94725
C         55.19683        40.35837        -1.68838
C         53.96579        39.59509        -1.83972
C         55.17580        41.70148        -1.36272
C         53.92464        42.42346        -1.14607
C         55.18276        44.51407        -0.49809
C         53.94118        43.78376        -0.78060
C         55.12012        46.00808        -0.56950
C         53.98167        46.66322         0.09518
C         55.13036        48.89476        -0.27045
C         53.95707        48.04251         0.22612
C         55.18628        50.22152         0.45791
C         53.99112        50.85395         0.82386
C         53.95195        52.22818         1.24152
C         57.71270        23.32655         0.75044
C         56.51823        22.66185         1.09303
C         57.72796        24.67786         0.44702
C         56.52509        25.45238         0.51520
C         57.74899        27.45913        -0.34248
C         56.54627        26.81475         0.15480
C         57.70213        28.88546        -0.69401
C         56.48831        29.56055        -0.74721
C         57.73345        31.78763        -0.93930
C         56.45216        31.02315        -0.97489
C         57.78552        33.13549        -1.60417
C         56.49880        33.79726        -2.02387
C         57.78279        36.02070        -2.14058
C         56.43624        35.29299        -2.21735
C         57.76466        37.47457        -1.92213
C         56.48843        38.17422        -2.17365
C         57.76472        40.31580        -1.53960
C         56.49363        39.69107        -1.98872
C         57.78738        41.78258        -1.39148
C         56.43976        42.47523        -1.33374
C         57.71250        44.61751        -0.94431
C         56.47585        43.82485        -0.70746
C         57.59636        45.96005        -1.15440
C         56.38841        46.79366        -0.87670
C         57.77769        48.93135        -0.30076
C         56.45717        48.15492        -0.34101
C         57.64421        50.26099         0.38420
C         56.46029        50.84359         0.68570
C         60.18094        25.04430         0.88781
C         59.01644        25.28254        -0.04651
C         60.22100        27.36129        -0.78519
C         58.93548        26.75238        -0.37805
C         60.22326        28.88087        -1.07536
C         58.94961        29.61949        -0.89119
C         60.24909        31.75844        -0.75354
C         58.98311        30.99925        -0.88213
C         60.24679        33.26990        -0.96872
C         59.00692        33.94939        -1.42415
C         60.24628        36.05131        -1.64461
C         59.01720        35.28708        -1.74818
C         60.20997        37.44550        -1.57932
C         58.93776        38.15282        -1.62796
C         60.12446        40.20262        -0.76611
C         58.91507        39.58213        -1.37370
C         60.12526        41.70823        -0.44559
C         58.96689        42.49812        -0.86599
C         60.15372        44.56676        -0.25499
C         58.99048        43.90765        -0.78219
C         60.11330        45.92831         0.28385
C         59.30563        46.92626        -0.29365
C         59.48567        48.36965         1.59426
C         58.89127        48.09643         0.35551
C         61.36985        25.70616         0.64753
C         61.44727        26.72930        -0.30765
C         61.48233        29.64573        -0.98315
C         61.50080        30.98140        -0.82884
C         61.50327        33.98907        -1.24710
C         61.48658        35.30676        -1.54976
C         61.42056        38.21229        -1.38119
C         61.40035        39.50136        -0.96645
C         61.36402        42.43834        -0.17343
C         61.34128        43.79774        -0.04505
C         60.73673        46.27212         1.50661
C         60.43776        47.48420         2.12647
O         23.42384        41.94744         1.96165
O         28.21924        26.83756        -2.33593
O         60.18390        32.69726         0.39113
O         23.58461        44.51608         1.85837
O         43.94505        56.66829        -0.94106
O         25.52582        33.34145        -2.17854
O         43.55536        27.28875         1.46237
O         35.75119        37.31590         1.96282
O         53.05467        24.45266         2.76430
O         46.96005        25.56944        -0.84357
O         54.39167        33.42041        -3.10931
O         45.96956        47.96778         2.85034
O         38.95371        40.22288        -1.34453
O         35.82334        44.46286         1.77422
O         60.22376        27.90066        -2.15432
O         51.43928        43.71697        -2.21448
O         33.09779        44.19690         1.43288
O         34.27264        34.87180         1.33082
O         37.11063        32.58547         0.68146
O         50.59440        37.74865        -3.50261
O         45.42672        20.86731         3.24142
O         59.85560        40.66402         0.60020
O         50.91104        23.21063         3.20493
O         36.83522        18.05953         1.59979
O         30.98579        39.86571        -2.03925
O         31.75496        47.27736        -2.02818
O         57.19128        42.45321        -2.57727
O         37.06619        28.55258        -2.30343
O         43.78568        17.37773         3.07919
O         29.82373        50.74580        -2.04832
O         51.07012        31.73488         0.76820
O         32.34420        24.06125         1.62611
O         55.94926        43.94071         0.65285
O         52.89346        44.61954         1.19001
O         43.83333        30.44230         1.11715
O         45.28919        28.11260        -1.45806
O         36.94224        47.40993        -1.32015
O         37.43386        31.22634        -2.67095
O         42.32978        28.83942        -1.71776
O         42.38155        20.42079        -0.47528
O         39.90260        41.46338         1.81880
O         43.39358        33.40807        -2.33635
O         47.24795        36.61741        -2.75179
O         38.29227        44.87455        -0.78058
O         29.46982        28.93068        -2.69066
O         40.62002        50.48121         2.64448
O         54.74251        27.66813         1.66576
O         37.09957        24.53958        -1.27812
O         26.26680        39.22345        -1.72145
O         42.34770        54.27006        -0.77274
O         50.57848        32.95461        -2.55372
O         41.30420        26.15743         1.76068
O         48.56125        39.12696        -3.06600
O         47.34476        50.23417         3.23456
O         46.73084        42.47869        -2.13620
O         29.48704        33.75467        -2.87296
O         57.15083        35.68270        -3.42083
O         52.04993        40.38121        -3.25279
O         56.53573        39.08639        -3.31547
O         44.61771        39.70235         0.70602
O         30.74976        31.08709        -3.13042
O         42.11208        53.07393         2.57979
O         41.92356        42.35446        -1.22022
O         32.20451        36.29740         1.06923
O         34.64765        52.54634         1.56939
O         27.05969        46.19634        -1.87780
O         35.58632        19.89350        -0.94903
O         43.32016        37.94835        -2.26039
O         45.40125        23.34176         2.69139
O         55.33208        46.54331        -1.93490
O         40.75726        16.51894         2.49613
O         56.86798        31.76523         0.24492
O         47.63897        24.57208         2.74734
O         35.61158        39.77101         1.98102
O         44.70245        24.47977        -0.79778
O         58.75416        46.64957        -1.56866
O         43.13694        35.62856         0.40097
O         32.87841        32.57784        -2.79566
O         48.74636        51.76673         0.41511
O         26.38485        42.05903         1.71764
O         33.12791        20.18095         1.70927
O         54.50190        30.77588        -2.52219
O         51.56306        46.98474         2.01780
O         46.87476        54.84831         3.40942
O         33.94902        39.73156        -1.40839
O         24.11885        26.96224         2.04066
O         41.07667        39.04776        -2.17635
O         46.44647        30.49291         1.27701
O         34.51794        22.87633         2.04691
O         57.34781        33.11610        -3.00488
O         38.46413        46.55746         2.45591
H         38.49873        45.62886         2.80154
O         53.04189        37.16529        -3.77411
H         52.23454        36.75796        -4.17766
O         54.76925        49.23638        -1.65625
H         54.84302        48.39865        -2.17604
O         34.39762        51.28889        -1.82969
H         34.36592        50.44053        -2.32172
O         40.61889        35.71064         1.02057
H         39.90139        36.07454         1.60607
O         22.56050        37.58883        -2.10566
H         23.02102        36.81318        -2.51328
O         35.18666        32.12837        -3.06244
H         36.07754        32.00063        -3.46709
O         38.35796        36.90807         1.90538
H         37.72945        36.27175         2.33865
O         47.92597        20.40795         3.97142
H         47.01741        20.34600         4.34681
O         35.41166        29.38862         0.83770
H         34.52812        29.34561         1.27218
O         32.45584        29.24967         0.73726
H         31.76522        28.66578         1.11873
O         40.91767        35.44069        -2.60168
H         41.57558        34.98465        -3.16961
O         58.15576        49.23646        -1.66651
H         58.35234        48.38461        -2.12313
O         51.40876        35.13080        -3.60520
H         50.85327        34.34922        -3.83613
O         36.15924        20.84907         2.61985
H         35.42362        21.48506         2.80319
O         36.77644        34.73476         1.81045
H         35.94683        34.41559         2.23544
O         54.09311        35.27751         0.03115
H         53.95271        36.18153         0.38424
O         25.62398        39.56352         1.84923
H         25.92869        40.30070         2.42778
O         51.53854        29.25575        -1.96012
H         52.20342        29.82446        -2.40879
O         52.65369        29.37011         1.53817
H         53.43288        28.98831         2.01064
O         35.41521        45.32263        -1.74969
H         35.87411        46.01579        -2.27862
O         38.69031        43.82957         2.68092
H         39.22487        43.15409         3.15430
O         44.03771        46.00137         3.06286
H         44.77326        46.49129         3.49836
O         31.49281        52.13915         1.62107
H         32.40120        52.11715         1.99714
O         27.10613        31.08220         1.11758
H         26.45523        30.58935         1.66399
O         23.61286        35.14946        -2.29439
H         24.29806        34.53796        -2.67290
O         59.33585        24.57289        -1.29340
H         60.10620        25.02439        -1.70078
O         52.87971        27.07597        -1.36029
H         52.21947        27.61004        -1.87294
O         40.44176        55.04370         2.27090
H         41.00863        54.41663         2.78859
O         41.89675        17.71659        -0.76818
H         42.00221        18.57910        -1.23247
H         22.79216        23.60997         0.20037
H         20.81798        24.88336         0.88324
H         20.88565        27.29745         1.27228
H         21.10334        29.21878         1.82406
H         21.05823        31.65434         1.57438
H         21.20507        33.66222         1.65169
H         21.11592        36.05722         1.12471
H         20.54095        37.72944        -0.11756
H         20.70737        40.07319         0.54507
H         20.75866        41.97506        -0.01975
H         20.76860        44.36513         0.00790
H         20.74323        46.30234         0.13734
H         22.95881        49.92992        -0.47983
H         20.80126        48.73406        -0.32087
H         24.42044        22.60667         0.02267
H         24.58742        50.84327         0.11898
H         26.48921        21.35032        -0.23817
H         26.70136        52.04543        -0.16680
H         30.17481        19.16152        -0.25338
H         28.10429        20.38518        -0.61710
H         30.34017        54.19819        -0.05374
H         28.29693        53.10667        -0.70357
H         31.84029        18.29128        -0.63516
H         32.04092        55.12968        -0.00721
H         33.95967        17.12532        -0.82426
H         34.17045        56.30411         0.00323
H         38.13483        15.01690        -0.22547
H         36.42771        16.47571        -1.35910
H         37.96334        58.37378        -0.27799
H         35.83170        57.20092        -0.23828
H         39.43997        13.85799         0.95164
H         39.54331        59.28920         0.20749
H         43.69490        13.90497         1.65719
H         41.58365        12.68859         1.23017
H         43.64279        59.20981        -1.10352
H         41.57681        60.51178        -0.47171
H         45.52233        14.93987         1.62936
H         45.91081        57.98535         0.21317
H         47.51792        16.26029         1.92660
H         47.15873        57.20243         2.27547
H         51.15210        18.54671         1.82780
H         49.07272        17.31638         1.69370
H         51.37097        54.44019         3.06214
H         49.30945        55.56865         3.82751
H         52.69649        19.50461         1.21728
H         52.81097        53.90147         1.87655
H         54.79534        20.67119         0.90919
H         54.86972        52.82995         1.21897
H         58.64417        22.74760         0.68330
H         56.55746        21.58504         1.30653
H         58.57641        50.81271         0.57601
H         56.48268        51.83191         1.16709
H         60.12664        24.24781         1.64355
H         59.20462        49.26943         2.15952
H         62.28272        25.40301         1.18199
H         62.42308        27.13367        -0.60464
H         62.42900        29.09678        -1.08053
H         62.46039        31.50899        -0.74183
H         62.46178        33.46504        -1.13477
H         62.44129        35.82733        -1.70325
H         62.39249        37.71600        -1.50237
H         62.34292        40.01950        -0.74420
H         62.28024        41.87948         0.05871
H         62.25821        44.32522         0.25475
H         61.40036        45.55269         2.00603
H         60.90763        47.72295         3.09033
