         621
 CSIRO Nanostructure Databank - Neutral Graphene Oxide Data Set
C          5.79609        31.86618        -0.12178
C          5.83947        33.22900        -0.17732
C          8.17677        27.46176        -0.25165
C          8.17439        28.88690        -0.39439
C          6.95862        29.67148        -0.33287
C          8.18050        31.77322        -0.80440
C          6.96340        31.05364        -0.37910
C          8.26397        33.24278        -0.67506
C          7.06582        33.96844        -0.42513
C          8.30976        36.08285        -0.60095
C          7.09805        35.37009        -0.39671
C          8.35513        37.50208        -0.60198
C         10.66176        23.12861        -0.26902
C         10.57248        24.52340        -0.38890
C          9.37332        25.26804        -0.25284
C         10.63824        27.38653        -0.30604
C          9.36476        26.68988        -0.30525
C         10.61941        28.83848        -0.08948
C          9.40471        29.56947        -0.46088
C         10.80960        31.69715        -1.00942
C          9.47251        30.96958        -0.88182
C         10.75535        33.20192        -0.77110
C          9.50278        33.92131        -0.77569
C         10.76381        36.06167        -0.92534
C          9.53087        35.34985        -0.75544
C         10.76626        37.46379        -1.03470
C          9.55462        38.19954        -0.82425
C         10.77730        40.35538        -0.97961
C          9.60223        39.63213        -0.79485
C         10.80139        41.75880        -0.83061
C         13.27383        18.99273         0.49395
C         13.21824        20.32857         0.08487
C         11.97374        21.01909        -0.03949
C         13.13221        23.09160        -0.57061
C         11.90650        22.40367        -0.31798
C         13.10449        24.52101        -0.87938
C         11.79343        25.27904        -0.75778
C         13.12060        27.41980        -0.47346
C         11.84850        26.72790        -0.47429
C         13.18315        28.81860        -0.27376
C         11.94015        29.58031        -0.05145
C         13.20199        31.71969        -0.14845
C         11.94218        31.00866        -0.31015
C         13.20239        33.20218        -0.34362
C         11.94580        33.90299        -0.68548
C         13.24975        35.98885        -0.89635
C         12.01138        35.33275        -0.86160
C         13.32070        37.39604        -1.32901
C         12.00779        38.16240        -1.42470
C         13.29744        40.31475        -0.92324
C         12.03575        39.68969        -1.51885
C         13.24435        41.69237        -0.71884
C         12.02301        42.47705        -0.81377
C         13.26426        44.64152        -0.68858
C         12.05372        43.88992        -0.71594
C         13.35024        46.03022        -0.70142
C         15.82282        14.77098         1.21738
C         15.74334        16.17259         0.92235
C         14.58119        16.89656         1.02852
C         15.78777        19.00799         0.30924
C         14.56817        18.40020         0.97031
C         15.72435        20.39153        -0.12289
C         14.45229        21.04313        -0.18382
C         15.59451        23.12549        -0.84927
C         14.38881        22.42114        -0.52956
C         15.57340        24.55745        -0.91087
C         14.35627        25.27813        -0.78275
C         15.58929        27.39074        -0.69566
C         14.34587        26.68768        -0.67332
C         15.60321        28.79066        -0.55614
C         14.41546        29.52047        -0.34827
C         15.65931        31.67119        -0.24404
C         14.47876        30.97412        -0.23705
C         15.77719        33.14478        -0.51740
C         14.47635        33.89908        -0.53484
C         15.73540        35.99145        -0.48870
C         14.48636        35.26403        -0.69726
C         15.78032        37.38251        -0.61196
C         14.66177        38.15326        -1.30600
C         15.70977        40.21998        -0.35079
C         14.52507        39.58478        -0.77624
C         15.70935        41.66575        -0.04453
C         14.43853        42.42180        -0.27348
C         15.84205        44.54971        -0.61214
C         14.51977        43.85260        -0.69545
C         15.83628        46.01312        -0.60286
C         14.61663        46.74588        -0.68860
C         15.91740        48.95202        -0.95355
C         14.65187        48.15087        -0.71447
C         15.88032        50.34920        -0.37707
C         18.41023        10.77210         2.48100
C         18.38116        12.13161         2.11854
C         17.13354        12.79298         1.89453
C         18.30682        14.90078         1.35004
C         17.04750        14.10958         1.41519
C         18.29983        16.15974         0.55672
C         16.97260        16.84349         0.41982
C         18.25502        18.98659         0.02221
C         16.96267        18.30549         0.22796
C         18.21485        20.43611        -0.46221
C         16.87894        21.04212        -0.60290
C         18.00257        23.05245        -1.47662
C         16.83205        22.41246        -1.01135
C         17.97899        24.51187        -1.51365
C         16.79040        25.25077        -1.06207
C         18.06537        27.32597        -0.82222
C         16.83035        26.66806        -0.91223
C         18.11364        28.71317        -0.34273
C         16.89148        29.50636        -0.60964
C         18.21667        31.62729         0.05182
C         16.95257        30.97519        -0.38386
C         18.15854        33.01778         0.57510
C         16.82448        33.83636         0.35339
C         17.77168        36.09891         0.81274
C         16.78452        35.30777         0.22555
C         18.07634        37.41289         0.38837
C         16.96124        38.09987        -0.23636
C         18.16408        40.17387         0.28601
C         16.93458        39.50954        -0.20620
C         18.19852        41.67801         0.33592
C         16.98784        42.41371        -0.02979
C         18.26073        44.49104         0.09734
C         17.04213        43.78983        -0.16370
C         18.16586        45.96281         0.38766
C         17.12801        46.69048        -0.46015
C         18.26392        48.88967         0.16193
C         17.18102        48.18899        -0.55465
C         18.24478        50.26836         0.33553
C         17.00090        51.01559         0.09031
C         18.12489        53.15770         0.70371
C         16.97660        52.42807         0.34315
C         18.15671        54.56085         0.83655
C         20.93732         6.60139         3.35476
C         20.89678         7.99428         3.01256
C         19.67694         8.69072         2.94005
C         20.83210        10.69670         2.09870
C         19.62809        10.05049         2.53794
C         20.81010        12.08033         1.75889
C         19.63046        12.80840         1.86460
C         20.93912        15.03865         1.41279
C         19.63136        14.27428         1.66958
C         20.80199        16.25530         0.50817
C         19.57436        16.87852         0.31151
C         20.61766        18.84239        -0.74202
C         19.50007        18.22613        -0.21245
C         20.61191        20.24008        -1.17945
C         19.38821        20.97145        -1.15525
C         20.52652        23.03098        -2.03580
C         19.20510        22.24214        -1.97144
C         20.59754        24.50123        -1.71355
C         19.31208        25.25087        -1.48465
C         20.60857        27.23206        -0.46463
C         19.31204        26.55350        -0.77277
C         20.66528        28.75047        -0.63206
C         19.40083        29.44634        -0.15652
C         20.70023        31.55557         0.19968
C         19.40879        30.93747        -0.04878
C         20.70381        32.99784         0.46057
C         19.46909        33.67412         0.74399
C         20.68098        35.85279         0.90311
C         19.57345        35.00964         1.15560
C         20.57340        37.28151         0.84899
C         19.37531        37.99416         0.58977
C         20.68823        40.19909         0.53351
C         19.47112        39.42780         0.07114
C         20.68029        41.64424         0.48339
C         19.49101        42.37560         0.31260
C         20.72442        44.52524         0.42541
C         19.47762        43.80424         0.28571
C         20.70148        45.99106         0.45695
C         19.49125        46.66425         0.38780
C         20.71531        48.87407         0.90748
C         19.40536        48.10837         0.64255
C         20.69515        50.32871         0.75468
C         19.44052        50.97174         0.70333
C         20.71109        53.19894         0.85851
C         19.37417        52.40991         0.95070
C         20.61860        54.62952         0.65597
C         19.38266        55.30534         0.86915
C         20.61833        57.46665         0.96664
C         19.40298        56.72197         0.95853
C         20.63210        58.85390         1.21037
C         23.36166         3.74604         3.39579
C         22.15291         4.44662         3.45948
C         23.42032         6.56245         3.33698
C         22.12389         5.86292         3.38873
C         23.40677         8.04520         2.89590
C         22.10149         8.67236         2.62212
C         23.29057        10.61962         1.65922
C         22.05941         9.96366         2.08574
C         23.29231        11.94550         1.34902
C         22.00586        12.66823         1.05208
C         23.23817        14.78447         0.54852
C         22.10419        14.17365         1.01056
C         23.22062        16.13960         0.00400
C         21.99714        16.83443        -0.03406
C         22.99152        18.59660        -1.70596
C         21.77247        17.91874        -1.05708
C         23.10207        20.12477        -1.96307
C         21.80693        20.84196        -1.65788
C         23.13304        23.02682        -1.87015
C         21.81531        22.25265        -2.02946
C         23.07468        24.47141        -1.52032
C         21.89023        25.12618        -1.32505
C         23.16784        27.21136        -0.45011
C         21.88572        26.45521        -0.64644
C         23.10430        28.67008        -0.12377
C         21.93079        29.39149        -0.09256
C         23.11674        31.52171         0.77061
C         21.88058        30.80813         0.22286
C         23.15291        32.96018         0.29695
C         21.90025        33.71924         0.53518
C         23.13588        35.86702         0.60972
C         21.93728        35.16076         0.66441
C         23.14449        37.37572         0.49991
C         21.88540        38.02836         1.11751
C         23.10302        40.20891         0.95092
C         21.86063        39.50672         0.77586
C         23.09421        41.63658         0.90151
C         21.91029        42.36283         0.66447
C         23.19819        44.53701         0.55105
C         21.90649        43.80668         0.58633
C         23.21868        46.03732         0.49829
C         21.93439        46.74302         0.57287
C         23.19440        48.86709         0.68815
C         21.96495        48.12589         0.74379
C         23.15735        50.27181         0.59338
C         21.94006        51.01724         0.63883
C         23.12808        53.17111         0.36550
C         21.95804        52.46058         0.55915
C         23.14886        54.63311         0.22389
C         21.82322        55.39172         0.33122
C         23.09860        57.48262         0.77820
C         21.87092        56.81106         0.70050
C         23.09693        58.89259         1.06220
C         21.84731        59.57469         1.24232
C         23.04055        61.67731         1.53488
C         21.85076        60.98017         1.47814
C         24.58691         4.39158         3.20229
C         25.83574         6.49337         2.78133
C         24.65951         5.80473         3.10727
C         25.81715         7.85116         2.34134
C         24.61779         8.56418         2.27983
C         25.80599        10.52329         1.25031
C         24.50516         9.76345         1.37898
C         25.80053        11.86226         0.97300
C         24.56311        12.65459         1.10893
C         25.74840        14.65339         0.00907
C         24.54267        14.08244         0.64940
C         25.64882        15.95491        -0.58059
C         24.39012        16.62804        -0.67459
C         25.62105        18.67497        -1.59466
C         24.31730        17.87626        -1.46285
C         25.59936        20.15383        -1.56259
C         24.37382        20.86700        -1.57753
C         25.59755        23.00723        -1.36516
C         24.37072        22.27688        -1.51942
C         25.62443        24.44210        -1.31304
C         24.37636        25.24340        -1.62657
C         25.64058        27.32388        -0.91361
C         24.38881        26.58234        -0.94015
C         25.63644        28.72941        -0.37735
C         24.39371        29.32631         0.20269
C         25.71146        31.54372         0.35910
C         24.43730        30.78391         0.55963
C         25.73693        32.95661         0.39717
C         24.45000        33.68867         0.25037
C         25.70735        35.88131         0.70117
C         24.41644        35.13119         0.63631
C         25.66341        37.37210         0.81967
C         24.45380        38.06052         0.96146
C         25.44422        40.30679         1.58740
C         24.31855        39.49565         1.20708
C         25.58047        41.65455         1.33523
C         24.32201        42.38350         1.22193
C         25.70327        44.55559         1.15308
C         24.38545        43.86300         1.13885
C         25.65245        46.02343         1.26777
C         24.44415        46.76929         0.88233
C         25.72307        48.88047         0.81032
C         24.45658        48.15436         0.79607
C         25.71446        50.32039         0.59149
C         24.42597        50.97217         0.31814
C         25.66390        53.21743         0.43749
C         24.41512        52.48013         0.18439
C         25.62481        54.63663         0.58994
C         24.39949        55.36360         0.50817
C         25.60614        57.45538         0.87641
C         24.36703        56.76238         0.68296
C         25.65529        58.96028         1.01402
C         24.30815        59.62716         1.15779
C         24.26868        61.00072         1.38214
C         27.02371         8.47053         1.80781
C         28.32302        10.33784         0.78633
C         27.03485         9.74578         1.31497
C         28.33808        11.85760         0.71867
C         27.04639        12.64365         0.78234
C         28.16554        14.56125        -0.40982
C         26.97048        13.97482         0.11988
C         28.10909        15.86358        -0.92884
C         26.87723        16.60310        -0.97486
C         28.08895        18.71484        -1.46651
C         26.88192        17.98918        -1.27458
C         28.10310        20.12352        -1.52841
C         26.83947        20.85818        -1.48264
C         28.07618        23.02875        -1.54161
C         26.82052        22.27194        -1.40449
C         28.10100        24.46460        -1.25454
C         26.85778        25.15543        -1.18245
C         28.13583        27.24155        -0.86605
C         26.91010        26.57181        -0.99454
C         28.16978        28.61021        -0.28128
C         26.92057        29.34619         0.08508
C         28.14754        31.52923         0.24500
C         26.92328        30.83275         0.22738
C         28.18576        32.93601         0.37113
C         26.95999        33.67027         0.40943
C         28.16296        35.79424         0.19298
C         26.96886        35.13930         0.37636
C         28.21940        37.26722         0.06754
C         26.99063        38.01176         0.56339
C         28.31139        40.12742         0.66895
C         27.33915        39.30565         1.13518
C         28.13790        41.62439         0.71493
C         26.86288        42.36476         1.05051
C         28.15453        44.60771         1.12142
C         26.89789        43.86911         1.22952
C         28.21639        46.00066         1.07603
C         26.98185        46.78735         1.28203
C         28.21675        48.98277         1.02199
C         26.92631        48.21425         0.93251
C         28.18404        50.32879         0.29075
C         26.88225        51.06370         0.52903
C         28.11834        53.21974         0.70256
C         26.87361        52.50571         0.50771
C         28.07452        54.62281         0.83244
C         26.85619        55.34048         0.78499
C         26.80377        56.76005         0.91095
C         29.47805        12.49462         0.06903
C         30.65055        14.48688        -0.64903
C         29.44205        13.83651        -0.34361
C         30.68316        15.77772        -1.30834
C         29.31618        16.47965        -1.51462
C         30.66358        18.70712        -1.66358
C         29.32447        17.95706        -1.71948
C         30.58525        20.13207        -1.35296
C         29.37213        20.80188        -1.42399
C         30.59660        23.03717        -1.09700
C         29.39954        22.27839        -1.48005
C         30.57973        24.41302        -1.19698
C         29.33573        25.15044        -1.24136
C         30.63745        27.28930        -1.10954
C         29.37094        26.56913        -1.07001
C         30.61614        28.78070        -1.07289
C         29.37495        29.44199        -0.56090
C         30.71359        31.48430         0.28207
C         29.41495        30.76194         0.15320
C         30.68153        32.95975         0.45579
C         29.47387        33.61887         0.46232
C         30.69532        35.88616         0.55022
C         29.42531        35.09696         0.53632
C         30.68732        37.26282        -0.01934
C         29.51974        38.00895        -0.05108
C         30.67925        40.43716        -0.13560
C         29.44267        39.52798        -0.11363
C         30.69083        41.68953         0.69199
C         29.40769        42.38023         0.95981
C         30.70308        44.60432         0.57432
C         29.38311        43.86375         0.77923
C         30.68541        46.06559         0.69170
C         29.45715        46.70855         0.81324
C         30.77022        48.96820         0.56440
C         29.41097        48.15891         0.55988
C         30.63813        50.40606         0.81739
C         29.44094        51.10640         0.64584
C         29.34845        52.50520         0.80332
C         31.90330        16.59653        -1.23673
C         33.11888        18.73125        -1.17752
C         31.91387        17.96657        -1.35255
C         33.11506        20.11183        -0.99477
C         31.80729        20.80690        -0.85921
C         33.11101        23.03897        -0.38086
C         31.79773        22.29262        -0.64706
C         33.13929        24.41829        -1.01868
C         31.85740        25.15111        -1.28268
C         33.12170        27.34181        -1.47613
C         31.83616        26.62703        -1.25507
C         33.19769        28.79741        -1.19575
C         31.92059        29.54732        -1.02511
C         33.25013        31.47305         0.06788
C         31.93798        30.89856        -0.36733
C         33.29966        32.94776         0.38153
C         31.98880        33.65652         0.64996
C         33.30656        35.87227         0.40429
C         32.01202        35.16222         0.67097
C         33.20808        37.26595        -0.08273
C         31.97211        37.74493        -0.44931
C         33.19392        40.33201         0.06603
C         32.01594        39.92140        -0.46237
C         33.27920        41.70608         0.62140
C         31.98707        42.44752         0.79791
C         33.21157        44.59619         0.60624
C         31.98771        43.89827         0.67896
C         33.16662        46.02507         0.63952
C         31.95687        46.77433         0.69741
C         31.96466        48.18204         0.80539
C         34.31399        20.87330        -0.97021
C         35.56302        22.98510        -0.93573
C         34.36005        22.27170        -0.80835
C         35.66936        24.41134        -0.87625
C         34.38875        25.23315        -0.66550
C         35.71518        27.30210        -1.37176
C         34.41051        26.56340        -1.44624
C         35.68326        28.73466        -1.06982
C         34.41003        29.41303        -0.96685
C         35.71141        31.55812        -0.54434
C         34.47882        30.76674        -0.35661
C         35.64743        33.00164        -0.48889
C         34.52004        33.70189        -0.05842
C         35.61511        35.91379        -0.45491
C         34.52501        35.14606        -0.04312
C         35.61663        37.36483        -0.35396
C         34.42136        38.04907        -0.22112
C         35.68750        40.28315        -0.14599
C         34.44589        39.50164         0.24393
C         35.65912        41.70651        -0.07539
C         34.50940        42.46737         0.29334
C         34.44788        43.86499         0.40373
C         36.88389        25.06489        -0.88867
C         38.13179        27.32078        -0.56160
C         36.99722        26.53335        -1.06470
C         38.12579        28.70368        -0.60723
C         36.88229        29.41807        -0.86468
C         38.17200        31.56686        -0.89968
C         36.87632        30.86311        -0.79479
C         38.15871        33.05622        -0.99649
C         36.82075        33.74475        -1.00653
C         38.15732        35.97999        -1.08876
C         36.81015        35.24794        -1.00897
C         38.06198        37.43022        -0.67391
C         36.87846        38.10538        -0.46959
C         36.84874        39.55177        -0.39802
C         39.29648        29.48663        -0.22240
C         40.46848        31.67698         0.05745
C         39.34570        30.85410        -0.34274
C         40.44197        33.04294         0.03232
C         39.31047        33.82433        -0.44503
C         39.25456        35.18610        -0.38068
O         33.76340        26.78946        -2.70793
O         24.58487        29.73557         1.59335
O         30.03485        48.53103        -0.64837
O         14.84670        42.09612         1.09422
O         18.71718        28.86805         1.00118
O         22.56085        26.36553         0.65925
O         17.54372        16.06800        -0.70245
O         18.52976        25.24746        -2.69175
O         32.81623        33.14455         1.74482
O         12.30772        24.89764        -2.07411
O         20.58308        24.00664        -3.10394
O         18.02118        40.82632         1.57002
O         17.13365        33.22257         1.61297
O         30.09287        41.69534         2.04903
O         11.20367        29.23914         1.21445
O         21.44108        17.07933        -2.21417
O         33.99139        30.69705         1.05394
O         25.11317        35.28373         1.93453
O         27.30302        42.10345        -0.37168
O         15.31389        44.01095        -1.91350
O         32.77873        41.94234         1.97105
O         34.33036        25.63289         0.66315
O         13.14340        32.63814         1.04873
O          8.67210        31.24192        -2.09371
O         36.62253        26.93484        -2.44988
O         20.09545        52.80948         2.14480
O         29.87099        44.15523        -0.57445
O         23.76392        33.29265        -0.99505
O         25.02871        17.91362        -2.74223
O         38.42898        32.24924        -2.18644
O         31.52930        21.38388         0.48680
O         36.52125        34.49331        -2.23922
O         18.50695        35.56281         1.87075
O         18.86939        15.01875         2.70139
O         25.60156        28.55654        -1.81284
O         19.86237        26.61351         0.60711
O         30.02335        18.35951        -2.92995
O         22.64522        22.60904        -3.18087
O         19.85655        48.43078         2.00495
O         28.83269        22.71220        -2.76675
O         17.68310        47.33340        -1.66252
O         29.94120        15.75742        -2.59487
O         26.26543        46.49340         2.52899
O         24.78973        13.75649         2.07699
O         23.43895        45.20351        -0.72782
O         27.27336        37.87533        -0.87980
O         22.43464        55.09102        -0.97874
O         12.62362        37.55922        -2.62408
O         26.53805        39.69050         2.19920
O         32.70113        24.51718        -2.36951
O         29.76452        40.34046        -1.27823
O         24.08847        43.27308         2.44887
O         23.23873        20.01463        -3.41390
O         29.66241        29.42730        -1.98881
O         17.06844        30.40079        -1.76841
O         27.68210        28.62738         1.10409
O         18.47389        20.08708         0.96001
O         27.93940        12.56114         1.95096
O         31.85420        30.79287        -1.81963
O         32.83597        35.66697         1.77316
O         23.55892         7.64668         4.29838
O         24.43529        51.62835        -1.01202
O         31.98108        38.83014        -1.33112
O         29.92317        35.72343         1.78589
O         30.18691        30.70670         1.40299
O         21.35294        15.59400         2.70200
H         20.52640        15.80803         3.19560
O         12.04451        40.04533        -2.92941
H         12.37794        39.26236        -3.42524
O         24.45542        25.52989        -3.07865
H         24.19078        24.72141        -3.57031
O         20.71424        28.92060        -2.07852
H         20.78978        29.87615        -2.28570
O         17.62913        46.07710         1.75086
H         18.33279        45.81800         2.38327
O         38.56524        36.03244        -2.48315
H         38.06653        35.31601        -2.94726
O         15.94294        49.13237        -2.40797
H         16.47502        48.38187        -2.76697
O         18.90576        21.83973        -3.33666
H         19.17236        22.58277        -3.92344
O         28.50830         9.82290        -0.54349
H         29.27845        10.27392        -0.94792
O         22.56051        18.29247        -3.14251
H         23.29335        17.77859        -3.57582
O         16.33843        33.24055        -1.87177
H         16.04857        32.46083        -2.39315
O         26.35183        59.51864        -0.11871
H         25.83775        59.30794        -0.92518
O         21.76247        12.32824        -0.37590
H         21.73493        11.34900        -0.44747
O         11.19237        31.58143        -2.43315
H         10.34474        31.57091        -2.94098
O         15.10441        38.29892        -2.68470
H         14.30631        38.21635        -3.25630
O         28.42016        49.26059         2.43843
H         27.94543        48.58429         2.96727
O         22.91775        31.63230         2.20153
H         23.22239        30.78505         2.60154
O         34.53871        39.33946         1.70300
H         34.28944        40.18921         2.12870
O         28.16017        50.06198        -1.13238
H         28.04139        50.91316        -1.60247
O         24.23298         9.21272         0.03070
H         25.04200         8.73470        -0.25445
O         33.20908        23.24740         1.03611
H         32.84488        22.44783         1.47825
O         23.05757        37.67871        -0.92839
H         23.86269        37.34036        -1.37502
O         14.66769        18.83368         2.39096
H         14.79864        19.80639         2.39287
O         22.07367        37.95232         2.55352
H         21.28335        38.32675         2.99561
O         19.60711        39.32808        -1.37884
H         20.44551        38.85840        -1.57765
H          4.84926        31.35726         0.11207
H          4.92401        33.80911         0.01054
H          7.21041        26.94176        -0.17074
H          6.01567        29.14537        -0.11875
H          6.16904        35.93057        -0.21541
H          7.42506        38.06863        -0.44696
H          9.74745        22.55789        -0.04604
H          8.42105        24.73241        -0.12152
H          8.67885        40.17611        -0.54250
H          9.85906        42.29527        -0.64025
H         12.33881        18.45286         0.70810
H         11.04462        20.46610         0.16420
H         11.09651        44.43309        -0.72448
H         12.42613        46.62685        -0.73325
H         14.88895        14.22641         1.42461
H         13.65785        16.39498         1.35728
H         13.69816        48.69571        -0.79410
H         14.95173        50.92007        -0.53332
H         17.46633        10.25368         2.70559
H         16.20681        12.21989         2.04884
H         16.03639        52.97158         0.16415
H         17.21252        55.12322         0.78460
H         19.98033         6.07620         3.49659
H         18.74457         8.18171         3.22590
H         18.45455        57.26190         1.09553
H         19.68540        59.38377         1.39204
H         23.34292         2.64872         3.45454
H         21.20558         3.89466         3.54171
H         23.03805        62.76182         1.71113
H         20.89147        61.50049         1.61112
H         25.50612         3.79813         3.09402
H         26.77785         5.93064         2.69749
H         26.27934        59.21775         1.91176
H         25.21112        61.56331         1.43852
H         27.95936         7.89283         1.84312
H         29.18438         9.99511         1.43195
H         29.01338        55.17680         0.98171
H         27.74304        57.31674         1.04520
H         30.41935        11.93228        -0.03156
H         31.59986        14.01472        -0.35638
H         31.52900        50.94778         1.17222
H         30.26562        53.07730         1.01305
H         32.83040        16.08287        -0.93830
H         34.07982        18.19486        -1.19051
H         34.11611        46.57957         0.59751
H         32.89905        48.69881         1.06912
H         35.26038        20.33775        -1.14861
H         36.47322        22.41655        -1.19201
H         36.59079        42.25110        -0.29844
H         35.36316        44.45330         0.23639
H         37.81844        24.48261        -0.82824
H         39.01770        26.78975        -0.18111
H         38.99370        38.01190        -0.75769
H         37.79257        40.08880        -0.58451
H         40.17271        28.94265         0.16334
H         41.36903        31.16655         0.43134
H         41.32325        33.60041         0.38390
H         40.11383        35.74283         0.02537
