         621
 CSIRO Nanostructure Databank - Neutral Graphene Oxide Data Set
C          6.35605        31.87147        -2.56949
C          6.28234        33.21724        -2.35514
C          8.74961        27.58560        -1.97190
C          8.81452        28.94929        -2.23573
C          7.63366        29.70987        -2.49115
C          8.71547        31.81091        -1.89069
C          7.58488        31.11599        -2.36655
C          8.53350        33.14781        -1.32041
C          7.37834        33.96018        -1.76627
C          8.53366        36.05589        -1.09120
C          7.38564        35.32957        -1.61225
C          8.56456        37.48447        -1.02656
C         10.93335        23.26872        -0.68525
C         10.98699        24.68322        -0.86371
C          9.84148        25.39110        -1.22919
C         11.30332        27.44849        -1.64797
C          9.93247        26.74457        -1.77059
C         11.38619        28.93540        -1.86863
C         10.11613        29.67010        -2.23938
C         11.23981        31.93485        -1.47384
C         10.03817        31.19073        -1.99258
C         11.05822        33.23275        -0.79576
C          9.73031        33.87952        -0.73595
C         10.74572        36.09947         0.04630
C          9.66823        35.33868        -0.68206
C         11.05841        37.42913        -0.66673
C          9.76352        38.22700        -0.78073
C         11.12857        40.35241        -0.70043
C          9.81142        39.60480        -0.72527
C         11.08194        41.78313        -0.20406
C         13.34336        18.93465        -0.41677
C         13.28945        20.34775        -0.15726
C         12.10948        21.11097        -0.45123
C         13.33682        23.25248        -0.10787
C         12.08778        22.51372        -0.41352
C         13.30092        24.72336         0.08939
C         12.22406        25.40830        -0.55776
C         13.39867        27.53160        -0.23920
C         12.32227        26.78702        -0.81797
C         13.53404        28.93768        -0.42194
C         12.58272        29.67064        -1.30792
C         13.54455        31.83280        -0.34078
C         12.53650        31.17020        -1.18371
C         13.41409        33.22188        -0.10717
C         12.15943        33.88591        -0.26130
C         13.19445        35.98712         0.76440
C         11.98638        35.24600         0.32613
C         13.21689        37.46596         0.70667
C         12.16317        38.19683         0.03716
C         13.43684        40.27968         0.38563
C         12.20704        39.56401         0.00522
C         13.42840        41.73884         0.60235
C         12.18275        42.44874         0.28994
C         13.35132        44.58171         0.71210
C         12.17717        43.87743         0.53336
C         13.37479        46.00937         0.75621
C         15.98888        14.85710        -1.19388
C         15.86126        16.13022        -0.62298
C         14.61840        16.82404        -0.64613
C         15.77488        18.86971         0.10599
C         14.52436        18.18775        -0.30439
C         15.68214        20.29247         0.55064
C         14.39746        20.99482         0.41794
C         15.48606        23.14773         1.30354
C         14.48774        22.46424         0.42306
C         15.46644        24.64227         1.42408
C         14.35796        25.41696         0.70840
C         15.17532        27.67633         1.40268
C         14.30183        26.84730         0.64433
C         15.51400        28.97919         1.08017
C         14.58512        29.66140         0.20448
C         15.57122        31.74431         1.15171
C         14.61011        31.08250         0.19886
C         15.82428        33.18471         0.79300
C         14.62066        33.95575         0.31554
C         15.52138        35.92787         1.51112
C         14.52021        35.33534         0.77520
C         15.28548        37.29236         2.01647
C         14.31233        38.09055         1.24367
C         15.64394        40.21140         1.75469
C         14.59265        39.50049         0.97795
C         15.83144        41.65288         1.35791
C         14.56622        42.38797         1.00859
C         15.85667        44.59947         1.20353
C         14.67332        43.84715         0.63542
C         15.84646        46.02285         0.86744
C         14.56835        46.72644         0.70230
C         15.76658        48.85802         0.33909
C         14.59026        48.15816         0.62459
C         15.83383        50.27486         0.29070
C         18.82639        11.24817        -3.01465
C         18.67677        12.44020        -2.22626
C         17.40305        13.01341        -2.01990
C         18.39650        14.79431        -0.64474
C         17.24976        14.20256        -1.27925
C         18.27904        16.05818         0.00161
C         17.03584        16.75363        -0.03305
C         18.10384        18.68271         1.04369
C         16.97031        18.06922         0.45413
C         18.02737        20.07674         1.55866
C         16.74811        20.86854         1.42523
C         18.02591        23.08233         1.70350
C         16.73100        22.36161         1.67210
C         18.05433        24.48747         1.68336
C         16.82131        25.22735         1.73829
C         18.07095        27.35550         2.06123
C         16.91380        26.55464         2.12600
C         17.95503        28.84981         2.12060
C         16.75415        29.61287         1.57209
C         18.10740        31.74391         1.51473
C         16.84223        30.97064         1.40748
C         18.06599        33.18901         1.81405
C         16.87756        33.88839         1.55432
C         17.76995        35.91501         2.61141
C         16.73782        35.25507         1.85560
C         17.63276        37.26816         2.99489
C         16.37139        38.00716         2.75151
C         18.46384        40.65376         2.84611
C         16.40916        39.49169         2.61889
C         18.35026        41.86346         2.21864
C         17.09640        42.44573         1.61896
C         18.30583        44.64387         1.37034
C         17.03554        43.94479         1.50783
C         18.30705        46.14971         1.17942
C         17.01335        46.70655         0.66948
C         18.24940        48.73807        -0.22638
C         16.93306        47.98997        -0.11820
C         18.26259        50.23383        -0.22992
C         17.01579        51.00050         0.02607
C         18.28130        53.12510        -0.31371
C         17.07845        52.40742        -0.06577
C         18.31313        54.50363        -0.55938
C         21.63661         7.62557        -4.88019
C         21.46548         8.79313        -4.07048
C         20.21011         9.40425        -3.91501
C         21.28869        11.34481        -2.79386
C         20.06174        10.64988        -3.24359
C         21.15533        12.55673        -1.89558
C         19.80405        13.03543        -1.58773
C         20.81218        14.72248        -0.06504
C         19.66817        14.16569        -0.75384
C         20.66435        15.93333         0.61564
C         19.42715        16.67053         0.59297
C         20.52643        18.67409         1.69022
C         19.32259        17.98496         1.13456
C         20.61726        20.16251         1.59683
C         19.31920        20.85432         1.72766
C         20.60880        23.07879         1.56528
C         19.25924        22.32650         1.50348
C         20.52418        24.50608         1.90674
C         19.31668        25.21489         1.86723
C         20.52581        27.41969         2.11461
C         19.30991        26.67351         2.01448
C         20.55513        28.83626         2.18923
C         19.27334        29.58775         2.23237
C         20.54183        31.83263         2.33450
C         19.36958        31.04139         1.86921
C         20.50640        33.20558         2.48708
C         19.19040        33.86278         2.37819
C         20.94837        36.30142         3.12604
C         18.94999        35.15259         2.87529
C         20.92437        37.71739         3.00590
C         19.74543        38.51354         3.20776
C         20.93466        40.53123         2.52311
C         19.71475        39.89233         2.93807
C         20.90618        41.91041         2.08140
C         19.61295        42.69956         2.22222
C         20.71949        44.56169         0.83850
C         19.49822        43.97347         1.42893
C         20.75493        46.00641         0.54973
C         19.54089        46.72052         0.51271
C         20.74504        48.71303        -0.25070
C         19.52648        48.04470         0.04979
C         20.78835        50.15645        -0.42940
C         19.57797        50.91152        -0.05325
C         20.80789        53.02235        -0.71670
C         19.58233        52.41543        -0.19517
C         20.72913        54.40575        -1.30305
C         19.51197        55.20539        -0.88515
C         20.75850        57.34801        -1.14253
C         19.55839        56.59618        -0.89986
C         20.83595        58.72344        -0.98793
C         24.37373         5.58109        -6.40772
C         23.08635         6.02376        -6.09107
C         24.07126         7.49846        -4.37412
C         22.88064         7.03590        -5.12083
C         23.92318         8.69851        -3.49676
C         22.62085         9.38912        -3.43102
C         23.67063        11.08459        -1.96651
C         22.54956        10.59255        -2.75599
C         23.49250        12.20666        -1.04493
C         22.26688        12.92273        -0.99842
C         23.22207        14.49861         0.60483
C         22.10249        14.02659        -0.11837
C         23.05024        15.64427         1.51640
C         21.75854        16.41566         1.48535
C         23.08659        18.60010         1.76119
C         21.77064        17.87283         1.87870
C         23.10269        20.09712         1.73451
C         21.81127        20.86029         1.74214
C         23.04928        23.02104         2.01347
C         21.83833        22.29870         1.84278
C         23.04292        24.42267         2.04255
C         21.78948        25.16162         2.25405
C         23.02587        27.46112         2.04852
C         21.79281        26.71177         2.29340
C         23.01869        28.85816         2.12989
C         21.77018        29.55400         2.27613
C         23.07597        31.77328         2.43896
C         21.77599        31.02988         2.51523
C         23.09222        33.25732         2.17279
C         21.79879        34.02273         2.38009
C         23.24426        36.14124         2.37625
C         21.98682        35.49141         2.65445
C         23.31431        37.56480         2.36914
C         22.12595        38.35046         2.56839
C         23.40407        40.44625         2.27849
C         22.11965        39.76741         2.42956
C         23.38028        41.94682         1.91469
C         22.06254        42.54026         1.66883
C         23.27558        44.56347         0.69959
C         22.02126        43.81587         0.92043
C         23.24304        45.89972         0.29544
C         21.97622        46.62824         0.20366
C         23.19596        48.64556        -0.60286
C         21.95230        47.99117        -0.16962
C         23.19358        50.08598        -1.03321
C         21.95149        50.84389        -0.75226
C         23.15637        52.93583        -1.56828
C         21.96175        52.28606        -0.87846
C         23.24872        54.43630        -1.27994
C         22.02875        55.15170        -1.21147
C         23.32223        57.31026        -1.33784
C         21.99552        56.59051        -1.42907
C         23.31773        58.74974        -1.06558
C         22.08960        59.44669        -0.97911
C         23.37547        61.50548        -0.74123
C         22.14403        60.84926        -0.79765
C         25.52514         6.12751        -5.82337
C         26.54751         7.71813        -4.21854
C         25.43259         7.13206        -4.83528
C         26.43736         8.81205        -3.30925
C         25.13614         9.58182        -3.31167
C         25.99813        10.70268        -1.18061
C         24.91123        10.48398        -2.12186
C         25.81516        11.87151        -0.17326
C         24.58117        12.65619        -0.26013
C         25.67360        14.37569         1.14477
C         24.50318        13.86551         0.49687
C         25.58597        15.58094         2.00159
C         24.28073        16.32913         2.04570
C         25.60691        18.53201         2.28077
C         24.30739        17.82326         2.17390
C         25.55826        19.92636         2.48554
C         24.40633        20.80398         2.05181
C         25.53144        23.21193         2.47215
C         24.37596        22.32381         2.09534
C         25.56945        24.54361         2.02111
C         24.26780        25.19212         1.74143
C         25.53607        27.45068         1.63854
C         24.23127        26.71305         1.66753
C         25.52081        28.88532         1.97442
C         24.29284        29.58336         2.12368
C         25.52965        31.68124         2.36872
C         24.31251        30.99506         2.22420
C         25.62484        33.14278         2.04874
C         24.39765        33.97697         2.25127
C         25.84241        36.01267         2.31363
C         24.45943        35.34936         2.21120
C         25.90317        37.54574         2.10215
C         24.55784        38.25688         2.07473
C         25.83878        40.33106         1.60291
C         24.58604        39.63168         1.97657
C         25.83881        41.81623         1.29197
C         24.57563        42.56418         1.31916
C         25.74747        44.54193         0.43689
C         24.52618        43.86571         0.81351
C         25.72126        45.93987         0.14998
C         24.48271        46.59085         0.09146
C         25.74017        48.79797        -0.26953
C         24.45904        48.04308        -0.10219
C         25.68259        50.16757        -0.82690
C         24.50114        50.79930        -1.10734
C         25.66466        52.91249        -1.46338
C         24.48303        52.23897        -1.33433
C         25.76765        54.34580        -1.05308
C         24.47044        55.09017        -1.19007
C         25.80223        57.25136        -1.28216
C         24.52809        56.54742        -0.84140
C         25.78359        58.64435        -1.26377
C         24.57727        59.40438        -1.02199
C         24.58079        60.80875        -0.86344
C         27.51654         9.29475        -2.58600
C         28.44006        10.77323        -0.83565
C         27.37845        10.29092        -1.55029
C         28.26756        11.62215         0.40656
C         27.02385        12.47526         0.35838
C         28.18198        14.35653         1.41525
C         26.96188        13.75186         0.95248
C         28.16274        15.63681         2.14524
C         26.84838        16.33290         2.36785
C         28.05143        18.54969         2.57190
C         26.83287        17.82771         2.45548
C         28.01884        19.94333         2.82893
C         26.73720        20.48133         3.00649
C         27.99563        23.22461         2.76727
C         26.72062        22.69289         2.99657
C         28.00503        24.57702         2.36784
C         26.79592        25.25116         2.09506
C         28.08411        27.45978         2.07144
C         26.83240        26.70423         1.82035
C         28.06208        28.87649         2.02770
C         26.75760        29.53764         2.18656
C         28.49481        31.89618         2.08766
C         26.66201        30.88666         2.57660
C         28.24626        33.16718         1.58091
C         26.91817        33.82534         1.67369
C         28.01607        35.90508         0.88880
C         26.92755        35.29280         1.53245
C         28.01177        37.34285         0.64658
C         26.90561        38.06347         1.10125
C         27.92647        40.17377         0.07817
C         26.80009        39.50078         0.80630
C         28.04048        41.64646         0.09249
C         26.96061        42.40609         0.51807
C         28.14540        44.47488        -0.13030
C         26.94852        43.81861         0.30189
C         28.16675        45.88298        -0.30087
C         26.96158        46.64233        -0.14931
C         28.20174        48.69843        -0.76584
C         26.98937        48.02770        -0.36997
C         28.20723        50.09353        -1.03024
C         26.98137        50.94051        -0.78188
C         28.20426        52.92015        -1.70807
C         26.91758        52.12424        -1.74615
C         28.15303        54.34094        -1.81509
C         26.97993        55.07960        -1.58669
C         26.95428        56.48870        -1.60215
C         29.49612        12.42198         0.70442
C         30.74135        14.32558         1.68058
C         29.43628        13.69203         1.22021
C         30.69425        15.83026         1.80163
C         29.44432        16.39662         2.35898
C         30.48581        18.69035         2.06600
C         29.40316        17.87274         2.75399
C         30.44769        20.17944         2.23328
C         29.24736        20.83541         2.87944
C         30.47354        23.08823         2.30403
C         29.25078        22.39629         2.84732
C         30.47610        24.48657         2.07617
C         29.30782        25.31520         2.55323
C         30.48691        27.38779         1.68483
C         29.29127        26.73875         2.05960
C         30.44892        28.78392         1.45383
C         29.29611        29.55615         1.74648
C         30.42074        31.56941         0.69610
C         29.41047        30.99240         1.53225
C         30.35732        32.95021         0.35613
C         29.25652        33.75315         0.76826
C         30.35625        35.83501        -0.03098
C         29.15454        35.14674         0.46394
C         30.28384        37.23640        -0.47277
C         29.10725        37.98709        -0.07997
C         30.10957        40.03909        -1.12329
C         29.08861        39.36612        -0.29895
C         30.27744        41.51361        -0.98991
C         29.21825        42.27526        -0.43636
C         30.51420        44.35475        -0.79589
C         29.29681        43.70053        -0.43632
C         30.57508        45.77186        -0.79912
C         29.39484        46.53622        -0.64254
C         30.62317        48.60096        -1.31526
C         29.40564        47.94870        -0.88193
C         30.57534        49.99903        -1.61568
C         29.39804        50.75175        -1.45640
C         29.38196        52.18955        -1.67364
C         31.80010        16.59633         1.61120
C         32.93040        18.77758         1.69346
C         31.79243        18.03120         1.80834
C         32.95004        20.22174         1.81876
C         31.71784        20.93456         2.11470
C         32.92478        23.07393         1.80547
C         31.67703        22.32161         2.09604
C         32.69511        24.30438         0.97687
C         31.58007        25.16648         1.50100
C         32.69618        27.15592         0.53538
C         31.63607        26.56997         1.30058
C         32.90849        28.61137         0.66739
C         31.69537        29.47813         1.08017
C         32.78362        31.47336         0.00049
C         31.62619        30.82497         0.50355
C         32.60849        32.67244        -0.92652
C         31.28467        33.51875        -0.68756
C         32.60957        35.64291        -1.28444
C         31.54183        34.99582        -0.47452
C         32.50540        37.02886        -1.58245
C         31.34133        37.78735        -1.23083
C         32.39421        39.93630        -2.30071
C         31.21097        39.19217        -1.72030
C         32.52837        41.41753        -2.10435
C         31.46712        42.17114        -1.38983
C         32.86524        44.23569        -1.61519
C         31.62195        43.56293        -1.23208
C         32.96299        45.62031        -1.53097
C         31.90804        46.46514        -0.87485
C         31.80896        47.86701        -1.40347
C         34.13841        20.88391         1.56188
C         35.31536        23.04230         0.83696
C         34.22172        22.33997         1.53428
C         35.22944        24.39737         0.49319
C         33.93417        25.04105         0.57426
C         35.64418        27.38756         0.99618
C         33.66589        26.25763        -0.07707
C         35.42943        28.74101         0.31564
C         34.09132        29.37696         0.13419
C         35.28178        31.67586        -0.04061
C         34.02267        30.84638         0.05075
C         35.10115        32.89104        -0.92757
C         33.87089        33.51355        -1.05276
C         34.98292        35.51921        -2.06736
C         33.76372        34.86722        -1.53777
C         34.92610        36.95956        -2.47666
C         33.59945        37.66567        -2.37946
C         34.89175        39.84749        -3.10341
C         33.58950        39.12406        -2.70891
C         34.95780        41.28077        -2.63607
C         33.87542        42.04183        -2.22995
C         33.97615        43.44001        -2.02370
C         36.44103        25.12357         0.16413
C         37.77811        27.22469        -0.15568
C         36.64831        26.52348         0.28628
C         37.94250        28.68803         0.02162
C         36.68269        29.53948         0.29581
C         37.72533        31.50057        -0.71214
C         36.58670        30.90651        -0.23967
C         37.64662        32.82250        -1.38311
C         36.31821        33.50303        -1.49174
C         37.48510        35.66516        -1.95333
C         36.29771        34.93442        -1.78717
C         37.41401        37.06420        -2.20232
C         36.18569        37.75312        -2.41231
C         36.13247        39.12084        -2.62770
C         39.06958        29.43128        -0.56311
C         40.16390        31.57844        -1.16480
C         38.99532        30.78969        -0.79507
C         40.11856        32.92098        -1.40817
C         38.86811        33.64698        -1.50869
C         38.76596        34.98869        -1.79338
O         17.35231        40.06234         3.45792
O         24.75857        21.60950         0.86295
O         32.02568        40.85627        -3.37013
O         26.67437        39.74789        -0.63397
O         32.46082        32.02587        -2.15433
O         19.07354        31.33964         0.45996
O         31.51579        35.49591         0.87823
O         12.34256        31.90193        -2.42665
O         21.81236        25.89244         3.53173
O         26.00965        33.23739         0.60644
O         22.03850        15.45967         2.56046
O         30.03245        19.52554         0.95819
O         37.58839        29.22823         1.37217
O         20.96099        18.19626         3.03544
O         25.05970        48.74786         1.05729
O         14.58291        39.84264        -0.44476
O         15.73303        27.15223         2.56195
O         33.17740        38.14269        -3.71366
O         18.59242        37.91841         3.74685
O         19.97510        22.71956         0.29094
O         25.63717        10.44873         0.21008
O         21.19293        43.73934        -0.30529
O         23.13585        49.00297        -2.02639
O         10.25832        30.60774        -3.32473
O         33.91472        23.06331         2.83808
O         30.01707        39.48192        -2.49753
O         34.81849        28.82646        -1.02636
O          8.76173        33.18036         0.14862
O         18.28172        49.49318        -1.49978
O         14.49017        22.93252        -0.98534
O         34.90430        35.92983        -3.50138
O         26.13150        15.53100         3.36386
O         35.19924        27.16060         2.10091
O         18.60011        20.30947         2.87838
O         23.94925         7.38187        -2.89542
O         23.59526        41.49156         3.29027
O         19.85748        35.70984         3.76201
O         23.24279        19.29099         0.49077
O         16.35201        21.39734         2.71880
O         10.93152        26.78230        -2.87374
O         22.31660        33.70321         1.02172
O         36.88570        32.71665        -2.64358
O         24.07559        25.89202         0.46032
O         26.60450        21.59072         3.82315
O         24.04824        16.97096         3.32925
O         21.47180        12.69962        -3.33755
O         15.19783        37.44408         3.47607
O         26.34104        27.09285         0.47655
O         29.50047        21.61586         4.06964
O         18.43545        29.37374         3.41483
O         26.72685        38.12253         3.12295
O         12.31657        35.31245         1.76311
O         14.90271        23.78681         2.48425
O         22.88977        52.80342        -2.95591
O         26.35381        41.26319         2.58069
O         15.75999        33.60990        -0.58187
O         27.75526        31.48144         3.19638
O         19.71997        51.75240         1.12490
O         22.78579        56.96625        -2.63318
O         16.19387        19.96896        -0.80519
O         22.49723        31.42898         3.74778
O         12.54908        29.23059        -2.70251
O         28.92039        15.55038         3.43253
O         32.75782        29.13804         2.03264
O         16.84166        41.81733         0.28294
O         25.99714        54.27951         0.42080
H         26.43629        53.41024         0.61051
O         10.14347        36.47619         1.30913
H         10.65493        36.02831         2.02556
O         32.35137        46.61563         0.55060
H         32.29965        45.72579         0.96169
O         15.00480        43.79192        -0.79797
H         15.78365        43.19100        -0.88285
O         32.16560        23.72903        -0.28795
H         31.97817        24.46881        -0.90456
O         20.69185        54.28082        -2.75919
H         21.48533        53.69536        -3.03147
O         31.82188        13.91282         0.84433
H         31.66332        14.25025        -0.06059
O         11.53290        37.12611        -1.99648
H         11.67603        37.98004        -2.46173
O         19.69556        43.21678         3.61622
H         19.91989        42.46363         4.20531
O         26.24878        35.76688         3.68810
H         26.68444        36.63064         3.95934
O         16.58244        47.56375        -1.46908
H         16.90363        48.26988        -2.07750
O         29.46539        25.45479         4.00761
H         29.69258        24.57353         4.37609
O         34.96046        39.87431        -4.55380
H         34.37061        39.15543        -4.88318
O         27.09124        51.51220         0.56457
H         26.92419        50.79297         1.21204
O         24.47206        56.61396         0.61611
H         25.12342        55.95362         0.95590
O         18.38714        46.65869         2.57060
H         18.99112        46.06955         3.07358
O         35.45466        32.26841         1.30897
H         35.60364        31.53653         1.94661
O         29.70997        17.93405         4.16533
H         29.26806        17.16152         4.58863
O         25.16891        10.42052        -4.50976
H         25.95799        10.99927        -4.45863
O         30.51514        33.44128        -1.90704
H         31.02361        32.79250        -2.48585
O         11.55985        40.41053        -2.11210
H         12.42129        40.88192        -2.13692
O         14.88736        31.83195         2.45204
H         14.78624        30.92079         2.80218
O         26.81261        51.60204        -3.09758
H         25.87752        51.66539        -3.38885
O         28.07169        10.68873         1.53010
H         27.19950        10.25095         1.37586
O         34.31280        26.45990        -1.23219
H         34.19124        27.37191        -1.59451
H          5.48539        31.33536        -2.97455
H          5.35868        33.76157        -2.60201
H          7.76179        27.10794        -1.88408
H          6.69326        29.16559        -2.66458
H          6.51008        35.91079        -1.94019
H          7.64012        38.04139        -1.24732
H          9.98556        22.74874        -0.88939
H          8.86753        24.87951        -1.24393
H          8.88225        40.18908        -0.82246
H         10.17237        42.36523        -0.42175
H         12.43450        18.43662        -0.78651
H         11.20173        20.57510        -0.76652
H         11.21954        44.41752         0.47667
H         12.41620        46.55053         0.72166
H         15.11188        14.38525        -1.66152
H         13.72696        16.30091        -1.02351
H         13.64902        48.70926         0.77954
H         14.91213        50.84177         0.49986
H         17.91649        10.76662        -3.40297
H         16.52312        12.56092        -2.50048
H         16.13887        52.97831         0.00112
H         17.37570        55.07827        -0.49197
H         20.75608         7.23404        -5.41261
H         19.31744         8.91989        -4.33823
H         18.65013        57.15688        -0.62781
H         19.91416        59.29115        -0.78860
H         24.49108         4.80398        -7.17636
H         22.22101         5.61054        -6.62921
H         23.39696        62.59652        -0.60963
H         21.21058        61.42339        -0.71067
H         26.51638         5.78718        -6.15597
H         27.54786         7.30698        -4.42635
H         26.70937        59.19786        -1.48533
H         25.53556        61.35302        -0.83871
H         28.50112         8.81573        -2.70296
H         29.45773        10.44011        -1.08987
H         29.08697        54.88713        -2.02653
H         27.87900        57.02859        -1.86330
H         30.47505        11.93014         0.60488
H         30.95870        13.91894         2.70653
H         31.49657        50.50018        -1.94858
H         30.34977        52.70638        -1.77172
H         32.73620        16.11737         1.28540
H         33.88374        18.27368         1.47276
H         33.90881        46.10669        -1.81521
H         32.73109        48.36623        -1.73877
H         35.00958        20.30281         1.22237
H         36.27810        22.51741         0.73050
H         35.93023        41.78283        -2.75993
H         34.94038        43.93505        -2.21413
H         37.31232        24.51271        -0.12593
H         38.56431        26.69284        -0.71415
H         38.34906        37.64209        -2.24978
H         37.07517        39.69022        -2.63020
H         40.00250        28.89047        -0.78488
H         41.13701        31.06483        -1.17041
H         41.05288        33.46890        -1.60247
H         39.68122        35.58729        -1.91839
