         424
 CSIRO Nanostructure Databank - Neutral Graphene Oxide Data Set
C          1.65053         1.88159         2.01389
C          1.54113         3.24411         1.87296
C          2.83635         1.19500         1.67937
C          2.63186         4.04096         1.21248
C          1.52471         6.22891         1.82683
C          1.52445         7.64575         1.92827
C          2.67497         5.49069         1.65545
C          2.68987         8.40345         1.82051
C          1.46718        10.57556         1.58284
C          1.43408        11.92564         1.65285
C          2.70226         9.83327         1.70467
C          2.65891        12.70629         2.04972
C          1.43327        14.87483         1.56060
C          1.41522        16.24712         1.28519
C          2.63223        14.16058         1.62740
C          2.61330        16.95688         1.11752
C          2.62532        18.37803         0.87712
C          4.01824         1.91932         1.34894
C          3.97200         3.34544         1.28623
C          5.24566         1.24508         1.13888
C          5.17601         4.07847         1.12478
C          3.97290         6.16262         1.77251
C          3.98187         7.69886         1.86174
C          5.19080         5.49949         1.27500
C          5.20042         8.41556         1.44100
C          3.93239        10.55307         1.64338
C          3.93286        11.98003         1.66258
C          5.17855         9.84764         1.45313
C          5.12802        12.70441         1.49895
C          3.86188        14.84943         1.44152
C          3.85141        16.25554         1.21204
C          5.11490        14.14677         1.45555
C          5.08370        16.97668         1.14824
C          3.79952        19.06712         0.76678
C          5.06935        18.40786         0.90955
C          6.43622         1.95449         0.86416
C          6.40524         3.39180         0.87953
C          7.65800         1.28881         0.60694
C          7.58819         4.13557         0.61939
C          6.36332         6.24375         1.01835
C          6.35829         7.70554         1.10238
C          7.53763         5.55284         0.62610
C          7.56793         8.43929         0.83373
C          6.38453        10.56911         1.28694
C          6.38243        12.01394         1.33939
C          7.59183         9.86078         0.99865
C          7.57966        12.74080         1.22870
C          6.32720        14.87441         1.36738
C          6.29963        16.29392         1.29043
C          7.58919        14.16522         1.26172
C          7.54028        17.10849         1.57245
C          6.26570        19.10156         0.73057
C          7.52945        18.47190         0.89426
C          8.85279         2.00772         0.36183
C          8.82180         3.43977         0.35456
C         10.08518         1.33214         0.14571
C         10.03500         4.16743         0.15614
C          8.70071         6.31248         0.06021
C          8.75146         7.75593         0.47834
C         10.01891         5.58863         0.16711
C          9.95949         8.46342         0.29112
C          8.81515        10.57205         0.80275
C          8.90800        12.02454         1.22186
C          9.96121         9.89251         0.41821
C          9.95916        12.82398         0.48547
C          8.80158        14.88182         1.09225
C          8.83974        16.33569         1.35111
C          9.96977        14.21547         0.57934
C         10.06960        17.08797         0.94854
C          8.70555        19.14950         0.59617
C          9.99395        18.53590         0.61951
C         11.28919         2.03492        -0.03891
C         11.26848         3.47095        -0.02574
C         12.53377         1.35989        -0.23718
C         12.48382         4.19963        -0.20281
C         11.21450         6.32318         0.03152
C         11.17292         7.74326         0.05957
C         12.47305         5.62525        -0.17447
C         12.36123         8.46834        -0.41699
C         11.25306        10.65700         0.27484
C         11.05357        12.10198        -0.14691
C         12.29205         9.94988        -0.57387
C         12.35007        12.87513        -0.48443
C         11.18750        14.97317         0.24653
C         11.22736        16.34833         0.42550
C         12.39121        14.29483        -0.16698
C         12.52741        17.09738         0.52440
C         11.14869        19.20352         0.23535
C         12.42430        18.55775         0.13976
C         13.73574         2.05693        -0.37003
C         13.72463         3.50770        -0.33389
C         14.98026         1.39046        -0.61078
C         14.93527         4.23143        -0.39415
C         13.69123         6.32504        -0.31513
C         13.69869         7.82197        -0.13715
C         14.91747         5.63459        -0.38877
C         14.87417         8.51311        -0.74515
C         13.54709        10.71051        -0.91662
C         13.61229        12.14738        -0.64421
C         14.86188         9.93799        -1.01977
C         14.82234        12.84193        -0.76228
C         13.63420        14.97613        -0.28945
C         13.68964        16.39089        -0.10922
C         14.83425        14.27207        -0.64523
C         14.85874        17.10703        -0.36721
C         13.58286        19.23713        -0.17615
C         14.85033        18.56043        -0.31524
C         16.19677         2.07433        -0.66456
C         16.25085         3.51130        -0.20096
C         17.39278         1.43607        -1.04462
C         17.45685         4.27838        -0.69641
C         16.20528         6.41610        -0.19841
C         16.14386         7.75831        -0.94031
C         17.46345         5.67788        -0.62242
C         17.37899         8.59980        -0.66531
C         16.11591        10.71771        -0.97244
C         16.07002        12.13261        -0.97523
C         17.34753        10.04715        -0.95281
C         17.28517        12.85167        -1.14559
C         16.05941        14.98665        -0.81940
C         16.06994        16.41459        -0.69477
C         17.27192        14.29520        -1.09906
C         17.28516        17.13426        -0.80777
C         16.04210        19.25314        -0.46942
C         17.28903        18.57226        -0.65660
C         18.61201         2.13376        -1.20207
C         18.64394         3.58964        -1.03797
C         19.76575         1.47134        -1.64371
C         19.83718         4.30614        -1.27626
C         18.64837         6.39563        -0.90875
C         18.68523         7.86916        -0.75742
C         19.84804         5.71794        -1.23065
C         19.87248         8.62374        -1.19451
C         18.56033        10.75078        -1.15854
C         18.49965        12.14765        -1.33696
C         19.81506        10.01911        -1.31127
C         19.68543        12.89283        -1.87913
C         18.49989        15.01923        -1.20862
C         18.50492        16.44074        -1.03833
C         19.72138        14.33997        -1.46211
C         19.74169        17.15422        -1.07907
C         18.50384        19.26220        -0.68885
C         19.74399        18.58503        -0.86126
C         21.00198         2.14324        -1.82680
C         21.14888         3.56307        -1.32585
C         22.12569         1.47983        -2.27346
C         22.27313         4.33140        -1.98799
C         21.07396         6.46540        -1.51598
C         21.06341         7.89214        -1.50086
C         22.24822         5.77946        -1.93817
C         22.24480         8.62886        -1.83472
C         21.01297        10.75160        -1.63243
C         20.99217        12.17194        -1.72166
C         22.21684        10.03889        -1.85726
C         22.19782        12.92350        -1.83133
C         20.94399        15.03971        -1.50813
C         20.95317        16.46520        -1.29450
C         22.17037        14.33494        -1.73190
C         22.20703        17.17216        -1.22859
C         20.96835        19.26699        -0.78971
C         22.20406        18.58733        -0.92276
C         23.38426         2.16879        -2.42601
C         23.36916         3.63334        -2.45519
C         24.54784         1.45330        -2.50754
C         24.58949         4.32615        -2.90890
C         23.41705         6.52021        -2.28824
C         23.44747         7.91869        -2.19258
C         24.60054         5.85279        -2.96079
C         24.68290         8.66486        -2.33901
C         23.40984        10.79076        -2.39041
C         23.45200        12.23145        -1.97763
C         24.70044        10.04097        -2.20108
C         24.67901        12.90343        -1.85507
C         23.43422        15.10675        -1.99183
C         23.41961        16.49427        -1.40442
C         24.69063        14.32733        -1.69987
C         24.65991        17.14915        -1.14050
C         23.43361        19.26093        -0.77597
C         24.66006        18.57197        -0.83527
C         25.92096         2.04294        -2.66262
C         25.90804         3.56896        -2.81486
C         26.86177         1.58825        -1.58230
C         27.10646         4.31630        -2.42213
C         25.91422         6.47294        -2.52801
C         25.97901         7.96815        -2.68979
C         27.08575         5.73274        -2.31377
C         27.17250         8.62806        -2.04604
C         25.93657        10.75991        -1.99950
C         25.92418        12.16298        -1.81271
C         27.14784        10.00018        -1.83377
C         27.15552        12.88584        -1.58791
C         25.88106        15.01166        -1.42127
C         25.86214        16.42171        -1.14621
C         27.13224        14.28730        -1.39308
C         27.07667        17.05334        -0.51962
C         25.89288        19.25164        -0.67470
C         27.11435        18.55972        -0.62550
C         28.05122         2.23247        -1.38517
C         28.35416         3.49938        -2.16166
C         29.06435         1.67311        -0.55313
C         29.49794         4.29588        -1.58003
C         28.32998         6.44737        -1.98195
C         28.35768         7.84793        -1.83833
C         29.52122         5.68626        -1.74772
C         29.61535         8.55832        -1.58563
C         28.35256        10.69680        -1.24502
C         28.39887        12.17887        -1.53712
C         29.63012         9.96045        -1.50638
C         29.61505        12.87259        -1.47822
C         28.36499        14.99828        -1.20230
C         28.37028        16.38292        -0.88827
C         29.60214        14.30654        -1.33106
C         29.57526        17.07034        -0.69348
C         28.33998        19.21648        -0.47762
C         29.57357        18.51207        -0.43154
C         30.31075         2.28207        -0.37602
C         30.55809         3.61691        -0.90316
C         31.31262         1.64359         0.39791
C         31.75412         4.27756        -0.54050
C         30.80073         6.39649        -1.64516
C         30.82978         7.83758        -1.55414
C         32.02900         5.61956        -1.05097
C         32.18314         8.50630        -1.55029
C         30.91036        10.70290        -1.80238
C         30.87257        12.15683        -1.41632
C         32.12291         9.98623        -1.27815
C         32.06091        12.81441        -1.15461
C         30.81548        15.02223        -1.15027
C         30.80906        16.37405        -0.80034
C         32.09547        14.28668        -1.26004
C         32.07653        17.00156        -0.25775
C         30.78161        19.18597        -0.24048
C         32.03579        18.51506        -0.20294
C         32.50641         2.29189         0.73831
C         32.71487         3.65921         0.31725
C         33.52005         1.62749         1.48030
C         33.88654         4.34493         0.71757
C         33.12969         6.41099        -0.47939
C         33.21682         7.78922        -0.70027
C         34.10023         5.72280         0.34464
C         34.32809         8.53346        -0.19920
C         33.23390        10.66261        -0.81728
C         33.28526        12.11552        -0.86484
C         34.37572         9.93149        -0.28624
C         34.47821        12.79573        -0.54987
C         33.39256        15.00939        -1.11815
C         33.35054        16.53525        -0.98808
C         34.57982        14.24855        -0.64819
C         34.56313        17.11232        -0.29823
C         33.22696        19.18730        -0.02388
C         34.49134        18.48602         0.06464
C         34.70196         2.27880         1.84263
C         34.88019         3.67490         1.50262
C         35.74917         1.58959         2.52275
C         36.03456         4.35583         1.92968
C         35.25571         6.39034         0.75569
C         35.55589         7.76186         0.20759
C         36.23718         5.73947         1.56585
C         36.53385         8.52972         1.04827
C         35.48331        10.68588         0.23626
C         35.55611        12.05570         0.06460
C         36.45151        10.02089         1.18535
C         36.68718        12.84001         0.70829
C         35.74224        14.91907        -0.32305
C         35.75624        16.37102        -0.14700
C         36.99437        14.06741        -0.15421
C         36.91136        17.04432         0.32579
C         35.63684        19.13437         0.54014
C         36.85815        18.42793         0.67727
C         36.92751         2.23632         2.88193
C         37.07334         3.65169         2.63336
C         38.01373         1.53543         3.51511
C         38.23883         4.31666         3.03196
C         37.38306         6.43453         1.98377
C         37.53090         7.84125         1.71646
C         38.28972         5.82116         3.01227
C         38.75456         8.53123         2.12425
C         37.81583        10.66792         1.24896
C         37.93411        12.01879         0.98713
C         38.91896         9.90643         1.77729
C         39.18603        12.69648         1.21613
C         38.22591        14.83277         0.31080
C         38.19454        16.33723         0.46763
C         39.30923        14.10047         0.99974
C         39.30289        16.98914         1.18312
C         38.00971        19.08257         1.18695
C         39.21267        18.38507         1.46220
C         39.17454         2.18003         3.83691
C         39.32900         3.59032         3.59639
C         40.54422         4.25415         3.84386
C         39.68441         6.39658         3.01528
C         39.83820         7.79561         2.66965
C         40.72293         5.61077         3.50036
C         41.07939         8.46366         2.85959
C         40.16602        10.55474         2.00021
C         40.29790        11.96505         1.72273
C         41.23671         9.79461         2.54056
C         41.50200        12.66566         1.99076
C         40.46560        14.79629         1.41141
C         40.47181        16.26183         1.49794
C         41.57172        14.03791         1.87461
C         41.57256        16.96684         2.03683
C         40.33892        19.05221         2.01350
C         41.50480        18.34427         2.27260
O         18.13081         8.30907         0.54565
O         11.34238        12.45729        -1.51362
O          9.83783        16.73557         2.39006
O         31.85721         5.80245        -2.49590
O          4.18087         6.86535         3.04947
O         32.92995        14.62400        -2.46286
O         38.69735        15.68601        -0.78348
O         11.94722         9.09109        -1.69576
O         14.06267        10.33416        -2.23080
O         25.25676         3.84137        -4.13315
O         24.41430         6.20473        -4.38593
H         24.83571         5.46716        -4.89261
O         28.84489         3.05865        -3.47275
H         29.07141         3.86052        -3.98941
O         26.16561         8.20078        -4.13651
H         25.49099         7.62515        -4.58370
O         16.19928         7.41179        -2.36998
H         15.73871         8.11549        -2.87658
O          2.29710         4.08691        -0.23529
H          2.24500         3.15763        -0.54620
O         16.27091         6.66466         1.23428
H         16.45075         5.79907         1.66579
O         16.43187         3.47102         1.26879
H         15.75643         2.85357         1.62411
O          8.43036         6.36018        -1.40522
H          9.16371         6.86781        -1.81656
O          2.65629        12.74046         3.52537
H          2.70403        11.81110         3.83613
O         31.01256        10.68503        -3.27705
H         31.55580         9.89457        -3.52001
O         26.91835        16.78178         0.93146
H         26.10721        17.25220         1.22170
O         13.86216         8.04341         1.31770
H         14.72741         7.62322         1.57013
O         37.32399        13.53858        -1.46183
H         37.76337        14.26475        -1.95910
O         28.15948        10.62861         0.22912
H         27.30435        11.06835         0.42657
O         23.46579        15.33271        -3.46564
H         22.70091        15.90762        -3.68388
O         11.84783        10.73202         1.60692
H         11.14173        11.04447         2.22552
O         36.28313         7.50743        -1.06525
H         35.65778         7.04853        -1.66677
O         26.44581         1.49681        -3.90945
H         26.06008         2.04227        -4.63101
O         32.19748        16.51227         1.11087
H         31.41695        16.82675         1.61391
O         35.85289        10.27711         2.52555
H         36.35199         9.73399         3.17445
O         12.82168        17.08319         1.97587
H         11.97024        17.20656         2.45245
O         33.33956        17.11433        -2.31016
H         33.11342        16.38324        -2.93616
O         23.21282        10.83417        -3.86154
H         23.42066         9.93947        -4.20898
O          9.38031        11.95222         2.63040
H          9.31548        12.85831         3.00428
O         36.20967        13.29845         2.00084
H         35.94168        12.49471         2.50417
O         37.70953         6.24375         4.32360
H         38.24685         5.80816         5.02017
O         21.56309         3.43799         0.08455
H         20.84565         2.96281         0.55585
O         32.65183         8.39139        -2.95662
H         32.56497         7.43070        -3.18691
O          7.44609        17.40352         2.99938
H          8.37512        17.48819         3.32144
O         19.45981        12.92559        -3.35268
H         20.30402        13.20656        -3.76789
H          0.79681         1.30717         2.40324
H          0.59676         3.74191         2.13284
H          2.88167         0.10055         1.76314
H          0.54598         5.73125         1.77246
H          0.54814         8.14652         1.98023
H          0.53628        10.02462         1.38749
H          0.47129        12.44374         1.54466
H          0.47502        14.36817         1.73768
H          0.45509        16.78026         1.23165
H          1.66276        18.90223         0.78421
H          5.26760         0.14591         1.17710
H          3.79066        20.15084         0.57851
H          7.68294         0.18896         0.61340
H          6.23520        20.15555         0.41296
H         10.09607         0.23201         0.14359
H          8.63998        20.19403         0.25200
H         12.53983         0.26019        -0.27155
H         11.08412        20.27182        -0.02531
H         14.96424         0.30966        -0.82005
H         13.55057        20.32527        -0.34348
H         17.36799         0.36141        -1.28313
H         16.04323        20.35281        -0.42478
H         19.70988         0.39675        -1.87637
H         18.51030        20.35360        -0.54817
H         22.08423         0.40139        -2.48891
H         20.97302        20.34927        -0.59142
H         24.49396         0.35369        -2.49842
H         23.43393        20.34204        -0.57210
H         26.65892         0.63640        -1.06772
H         25.89101        20.35022        -0.60658
H         28.86660         0.70707        -0.06407
H         28.35562        20.31468        -0.39939
H         31.13501         0.61804         0.75458
H         30.76848        20.28091        -0.12344
H         33.37368         0.57262         1.75617
H         33.22511        20.28010         0.11042
H         35.62497         0.51874         2.74323
H         35.59055        20.19395         0.83066
H         37.90139         0.45929         3.71269
H         37.95202        20.15722         1.41402
H         40.01123         1.62886         4.29074
H         41.39587         3.68612         4.24439
H         41.73186         6.03314         3.60991
H         41.93615         7.91828         3.27702
H         42.21314        10.26422         2.71737
H         42.38959        12.12392         2.34257
H         42.50862        14.53993         2.14890
H         42.50419        16.44083         2.28248
H         40.28095        20.13032         2.21909
H         42.38062        18.86380         2.68590
