         349
 CSIRO Nanostructure Databank - Neutral Graphene Oxide Data Set
C          1.39964         3.57287         0.45773
C          0.26628         4.31289         0.77253
C          1.42810         6.39276         0.20537
C          0.27890         5.70549         0.66654
C          1.44068         7.82057         0.04400
C          0.43280         8.64265         0.66975
C          1.13592        10.64336        -0.56348
C          0.34438         9.98882         0.48687
C          1.15741        12.13890        -0.69362
C         -0.00059        12.91549        -0.29651
C          1.00910        15.02762        -1.10452
C         -0.08428        14.25979        -0.48109
C          1.10959        16.56413        -0.96036
C         -0.17200        17.17372        -0.46998
C          1.01651        18.96318         0.72834
C         -0.17923        18.33573         0.20915
C          0.90736        20.16771         1.37651
C         -0.14905        21.17143         1.38995
C          1.33925        23.28236         1.60018
C          0.05311        22.50802         1.55696
C          1.32359        24.80664         1.63618
C          0.06390        25.58725         1.67018
C          1.28998        27.72897         1.73122
C          0.04630        26.93704         1.62190
C          1.33125        29.18356         1.50737
C          3.76579         3.48792        -0.19919
C          2.58474         4.22289         0.01967
C          3.76024         6.31559        -0.63453
C          2.59323         5.64991        -0.14790
C          3.69350         7.70267        -0.96129
C          2.51739         8.43058        -0.65388
C          3.44774        10.52691        -1.79556
C          2.29684         9.82601        -1.10905
C          3.47688        12.06545        -1.62547
C          2.26316        12.78346        -1.18970
C          3.56670        14.99364        -1.07148
C          2.29127        14.26424        -1.32569
C          3.53401        16.31011        -0.44518
C          2.35842        16.98771        -0.19002
C          3.60470        19.06996         0.35595
C          2.36677        18.22242         0.72346
C          3.58246        20.51521         0.11924
C          2.69475        21.33014         0.95051
C          3.54960        23.48562         0.21538
C          2.50455        22.67003         0.87629
C          3.79645        24.80248         0.93843
C          2.51691        25.53418         1.18668
C          3.78834        27.74031         1.10375
C          2.59398        26.96386         1.47032
C          3.78324        29.14933         1.23884
C          2.51401        29.84207         1.38966
C          6.20697         3.44161        -0.38409
C          4.98180         4.14745        -0.48581
C          6.23377         6.21434        -0.94973
C          4.98909         5.55868        -0.74738
C          6.18404         7.71358        -1.09859
C          4.88898         8.33105        -1.71058
C          5.85312        10.70582        -1.73842
C          4.80257         9.86026        -1.58036
C          5.92888        12.03778        -1.02831
C          4.75714        12.86175        -1.49971
C          6.04412        14.90695        -0.90638
C          4.75620        14.28544        -1.10075
C          6.09374        16.26287        -0.57630
C          4.85533        16.89767        -0.09429
C          6.10956        19.14409        -0.24627
C          4.88057        18.40847         0.15351
C          6.09106        20.53812        -0.43972
C          4.79829        21.26388        -0.42903
C          6.06452        23.46521        -0.34245
C          4.78465        22.76676        -0.33076
C          6.08473        24.93196        -0.27235
C          4.85929        25.65383         0.26257
C          6.15990        27.78094         0.54290
C          4.95630        27.07541         0.68756
C          6.19392        29.17075         0.80868
C          5.00129        29.84666         1.08678
C          8.64028         3.42278        -0.04174
C          7.43194         4.11334        -0.43751
C          8.77269         6.17976        -0.77864
C          7.44285         5.50793        -0.77402
C          8.78195         7.66199        -0.73771
C          7.50033         8.40264        -0.93886
C          8.63904        10.57048        -0.65455
C          7.78802         9.79156        -1.35535
C          8.47255        12.04504        -0.38334
C          7.27140        12.74784        -1.00329
C          8.53381        14.85679        -0.82043
C          7.27620        14.13536        -0.93609
C          8.54772        16.28868        -0.75943
C          7.33044        16.98995        -0.54866
C          8.54726        19.14571        -0.66686
C          7.33046        18.42611        -0.44138
C          8.52441        20.56989        -0.74233
C          7.30568        21.25575        -0.65160
C          8.56664        23.52719        -0.84223
C          7.26470        22.74214        -0.76498
C          8.56176        24.93513        -0.36084
C          7.39813        25.60668        -0.12568
C          8.69123        27.78971         0.19990
C          7.42118        27.01749         0.34884
C          8.54293        29.26889        -0.12019
C          7.51530        29.91595         0.83853
C         11.03986         3.40539         0.60147
C          9.84745         4.06259         0.17173
C         11.14339         6.28137         0.32800
C          9.98746         5.48814        -0.21700
C         11.10685         7.77096         0.38497
C          9.81559         8.41467         0.04949
C         10.89782        10.72886         0.44544
C          9.67697         9.90155         0.16769
C         10.97968        12.08445        -0.16379
C          9.79341        12.75375        -0.54321
C         11.01427        14.84243        -1.04051
C          9.75221        14.14168        -0.80064
C         11.03159        16.30675        -0.96832
C          9.79328        17.01329        -0.82840
C         11.03923        19.14422        -0.92910
C          9.78747        18.43009        -0.82331
C         11.05572        20.55798        -0.94172
C          9.77115        21.30290        -1.20723
C         11.03826        23.42167        -0.73006
C          9.83876        22.76304        -0.81086
C         11.03625        24.93418        -0.83147
C          9.90197        25.55815        -0.01477
C         11.11407        27.74638        -0.22863
C          9.91490        27.06574        -0.18306
C         11.15144        29.19503        -0.09227
C          9.89425        30.04363        -0.20608
C         13.44908         3.47426         0.95212
C         12.19759         4.11766         0.94072
C         13.37911         6.35128         1.49865
C         12.05653         5.58917         1.32364
C         13.36792         7.89313         1.50627
C         12.16150         8.50574         0.82670
C         13.46400        10.69458         0.63874
C         12.16097         9.99907         0.81081
C         13.45456        12.07949         0.22465
C         12.25769        12.71201        -0.20792
C         13.55011        14.85712        -0.67449
C         12.32318        14.06394        -0.79352
C         13.49976        16.22296        -0.96352
C         12.26583        16.97502        -1.01653
C         13.49140        19.14326        -1.08391
C         12.27570        18.42288        -1.00360
C         13.51516        20.54955        -0.93637
C         12.27777        21.26504        -0.86688
C         13.51035        23.39118        -0.54010
C         12.29785        22.70124        -0.73508
C         13.49934        24.82241        -0.32116
C         12.34751        25.58240        -0.44977
C         13.57738        27.68283        -0.01760
C         12.36614        27.00388        -0.24539
C         13.59653        29.11924         0.16253
C         12.34370        29.83433         0.10501
C         15.89471         3.52235         0.87506
C         14.66755         4.17288         1.02761
C         15.90362         6.40069         1.03461
C         14.67201         5.62904         1.32385
C         15.85784         7.83133         0.92268
C         14.66984         8.55515         1.04045
C         15.92058        10.76640         1.10943
C         14.64931         9.98637         0.86127
C         15.92521        12.15181         0.48567
C         14.71832        12.79532         0.10979
C         16.01263        14.84445        -0.36286
C         14.76821        14.15812        -0.33295
C         16.06846        16.22759        -0.89912
C         14.76538        16.92454        -1.23664
C         16.05154        19.15785        -1.23938
C         14.74763        18.41561        -1.36551
C         16.00542        20.60389        -0.95854
C         14.76320        21.27710        -0.86003
C         16.01696        23.34664        -0.43910
C         14.76757        22.67805        -0.59568
C         16.04808        24.72588         0.07072
C         14.72943        25.49070         0.13548
C         16.03069        27.60358         0.27681
C         14.79897        26.95528         0.11298
C         16.05559        29.06581         0.34170
C         14.79904        29.77028         0.36333
C         18.34879         3.55398         0.83925
C         17.11623         4.24059         0.88124
C         18.36648         6.39593         0.85560
C         17.10055         5.68692         0.88797
C         18.38036         7.77909         0.84397
C         17.12479         8.52549         0.45182
C         18.36722        10.66040         0.75223
C         17.18858        10.00243         0.78146
C         18.40089        12.16078         0.98372
C         17.14739        12.84195         0.45174
C         18.45969        14.96748         0.15607
C         17.19253        14.19165         0.03460
C         18.54309        16.32695        -0.46211
C         17.27178        17.06213        -0.66585
C         18.51239        19.19777        -0.79486
C         17.28560        18.42296        -0.86218
C         18.47467        20.56026        -0.99866
C         17.22668        21.29605        -0.92644
C         18.51416        23.40502        -0.52154
C         17.24469        22.69792        -0.66846
C         18.54269        24.78098        -0.15385
C         17.29934        25.49449         0.05467
C         18.52682        27.62246         0.61121
C         17.26223        26.86638         0.27887
C         18.53013        29.02569         0.00219
C         17.24871        29.75097         0.30937
C         19.56431         4.24261         0.83289
C         20.84530         6.36275         0.75023
C         19.59981         5.64050         0.85470
C         20.88342         7.71356         0.80996
C         19.65417         8.52798         1.12757
C         20.86782        10.70000         0.96064
C         19.66896         9.91740         0.46855
C         20.88594        12.03546         0.92528
C         19.69032        12.75601         0.35769
C         21.02415        15.00896         0.30658
C         19.74046        14.27076         0.47566
C         21.05535        16.32240         0.02253
C         19.85097        17.04854        -0.46727
C         21.00820        19.26341        -0.99379
C         19.82512        18.56850        -0.36113
C         20.96322        20.54879        -1.36505
C         19.68748        21.35340        -1.41926
C         20.94726        23.38828        -0.57397
C         19.73327        22.72397        -0.76978
C         20.97674        24.72867        -0.18691
C         19.78987        25.45932        -0.01059
C         20.96736        27.62786         0.33092
C         19.81756        26.89190         0.27845
C         20.93560        29.06467         0.54246
C         19.78685        29.76081         0.41069
O          3.74462        20.82261        -1.32561
O          3.72470        23.40001        -1.20022
O          1.04589         9.95909        -1.85674
O         14.09749         5.87985         2.69110
O          2.12801        27.29162         2.84449
O          7.79010        23.28048        -2.06936
O          9.21027         9.04749         1.25009
O          7.02102        10.30174        -2.38667
O          8.28998        27.30772         1.55158
O          1.41983        14.64657        -2.45882
O         15.56158        16.28732        -2.28084
O         19.36925        16.42421        -1.69747
O          9.15429         6.97676        -1.96435
O         15.31017        24.87639         1.33900
O         11.75314        14.21530        -2.13823
O          1.62257        23.93701         2.87913
O          5.05732        25.56537        -1.16716
O         11.33065        10.66169         1.83830
O         18.95140        14.88427         1.56093
O         11.20795         5.72617        -1.01530
O          2.08491        20.63413         1.99469
O          6.55533         8.33836         0.18618
O          4.16907        12.63698        -2.80795
O         15.46807        18.85826        -2.56004
O          5.08891        17.39259         1.27171
O          3.23623        10.27864        -3.21847
H          3.68224        11.01148        -3.70467
O         13.23407         8.29876         2.89227
H         13.81053         7.69808         3.41749
O         10.75704        25.26170        -2.21907
H         11.38154        24.76434        -2.78694
O          2.53844        17.72765         2.08105
H          3.48348        17.44335         2.16595
O          7.94894        29.27359        -1.44314
H          7.79647        30.20199        -1.71703
O          9.94363        31.12173         0.72858
H          9.59268        30.80178         1.59430
O         19.60914        12.47691        -1.07463
H         20.32926        12.96549        -1.52693
O         19.46667        21.63303        -2.84195
H         19.25270        20.78439        -3.28469
O          8.02420        29.91703         2.18378
H          8.09556        28.97094         2.45993
O          1.30296        17.13573        -2.28257
H          1.54469        16.38553        -2.88196
O         19.67880         8.79216         2.56936
H         19.62670         7.92983         3.03292
O          4.37017        24.43110         2.24088
H          3.60769        24.23613         2.84186
O         18.50079        27.80356         2.05693
H         18.38225        26.92316         2.47040
O          8.16452        12.09308         1.07158
H          8.81137        11.52692         1.55007
O         19.92359        18.80002         1.08035
H         19.93283        19.76829         1.23384
O          5.58227        11.75643         0.36932
H          6.42504        11.71557         0.89424
O         15.93942        10.98734         2.55624
H         16.79302        11.44305         2.76931
O          9.64841        21.33371        -2.67472
H          8.90322        21.95363        -2.87772
O         10.16239        25.27156         1.38270
H          9.55082        25.84328         1.90644
O         11.37732         5.63363         2.59895
H         12.06084         5.50112         3.29235
O         17.11634         8.45468        -1.01795
H         17.99506         8.80208        -1.31411
O         18.57389        28.86399        -1.44967
H         18.62078        29.75617        -1.85160
O         18.42844        12.37596         2.41673
H         18.49127        13.35364         2.55631
O          4.81127         7.93423        -3.08860
H          4.12256         8.50601        -3.50640
O         19.75449         9.71289        -0.96578
H         19.72542        10.61602        -1.37158
H          1.39626         2.47839         0.56077
H         -0.64520         3.80253         1.11342
H         -0.63173         6.26625         0.91641
H         -0.22731         8.17150         1.41207
H         -0.33954        10.58453         1.10788
H         -0.84466        12.38969         0.17192
H         -0.95741        14.80162        -0.08946
H         -1.11646        16.76675        -0.85866
H         -1.13897        18.82785         0.43163
H         -1.18933        20.82646         1.27334
H         -0.85987        23.12205         1.61919
H         -0.89319        25.04511         1.66177
H         -0.91209        27.47408         1.55144
H          0.38072        29.73709         1.47562
H          3.76728         2.40057        -0.03220
H          2.52001        30.93840         1.29667
H          6.18512         2.37099        -0.13236
H          5.01821        30.93799         1.22602
H          8.54975         2.35550         0.21164
H          7.35619        30.98427         0.54520
H         11.08238         2.30557         0.55754
H          9.92190        30.51560        -1.22842
H         13.48298         2.39411         0.73933
H         12.35281        30.92666         0.23510
H         15.91527         2.42976         0.74796
H         14.81339        30.86467         0.47835
H         18.34406         2.45485         0.81623
H         17.24358        30.85312         0.31223
H         20.50900         3.68111         0.79379
H         21.76905         5.78622         0.58977
H         21.84763         8.23354         0.71505
H         21.72466        10.15341         1.38071
H         21.74645        12.60013         1.31384
H         21.95734        14.48655         0.56628
H         22.01494        16.86095         0.03531
H         21.95878        18.71104        -1.05796
H         21.86082        21.01336        -1.80200
H         21.89620        22.86331        -0.75034
H         21.95144        25.21709        -0.05525
H         21.95235        27.15983         0.18918
H         21.88288        29.57895         0.76276
H         19.77130        30.85792         0.50010
