         349
 CSIRO Nanostructure Databank - Neutral Graphene Oxide Data Set
C          1.49309         3.82750        -2.51819
C          0.41898         4.62415        -2.80091
C          1.22613         6.46132        -1.39794
C          0.30339         5.95677        -2.27449
C          1.10754         7.79603        -0.75009
C          0.02932         8.71824        -1.16877
C          1.12125        10.72045        -0.20335
C          0.04839        10.04812        -0.90586
C          1.10947        12.08560         0.04691
C         -0.05524        12.89291        -0.19400
C          1.04243        15.00068         0.45050
C         -0.10523        14.24337         0.04942
C          1.01812        16.38546         0.59074
C         -0.15313        17.18283         0.34431
C          1.11089        19.28327         0.59924
C         -0.10948        18.54870         0.35476
C          1.08971        20.78934         0.83703
C         -0.08260        21.50538         0.22010
C          1.29678        23.40023        -0.48887
C          0.02018        22.71502        -0.36678
C          1.38605        24.77270        -0.96436
C          0.31810        25.44724        -1.58089
C          1.53120        27.57693        -1.58576
C          0.40025        26.80122        -1.91730
C          1.62889        28.96958        -1.90203
C          3.73792         3.59178        -1.52285
C          2.58336         4.32049        -1.71976
C          3.65169         6.33982        -0.55223
C          2.40898         5.64254        -1.06543
C          3.66489         7.80008        -0.25954
C          2.33337         8.43782        -0.11098
C          3.58875        10.60864         0.50193
C          2.29266         9.90705         0.21445
C          3.60700        12.08250         0.57985
C          2.25449        12.75835         0.80167
C          3.50282        14.90853         1.15873
C          2.35779        14.24612         0.41546
C          3.51663        16.40765         1.25196
C          2.23110        17.13581         1.00393
C          3.53017        19.32074         1.31162
C          2.27792        18.60193         0.82617
C          3.59646        20.72361         0.74511
C          2.42263        21.40336         0.46215
C          3.76708        23.38283        -0.35096
C          2.44539        22.73225        -0.07344
C          3.69606        24.87290        -0.13788
C          2.58253        25.52507        -0.66104
C          3.74714        27.70760        -0.53239
C          2.62240        26.95274        -0.90100
C          3.85065        29.08364        -0.88638
C          2.75174        29.69053        -1.58135
C          6.15005         3.54122        -1.00617
C          4.95796         4.20608        -1.04739
C          6.02570         6.29826         0.00594
C          4.96843         5.72363        -0.97544
C          6.19781         7.80411        -0.26264
C          4.84677         8.49425        -0.06005
C          6.06348        10.56649         0.56538
C          4.86956         9.89295         0.31647
C          6.08032        12.02076         0.76978
C          4.79781        12.73376         0.74784
C          6.04162        14.95054         1.05032
C          4.80003        14.17201         1.13584
C          6.01955        16.35074         0.96398
C          4.80176        17.12945         1.09915
C          6.07256        19.22024         1.06222
C          4.81919        18.52432         1.09888
C          6.11194        20.64944         0.95312
C          4.88658        21.38859         0.65113
C          6.24502        23.47463         0.19420
C          4.94937        22.71452         0.28481
C          6.13802        24.90810         0.69537
C          4.79882        25.61660         0.46715
C          6.05481        27.89158         0.62542
C          4.78750        27.11177         0.33526
C          6.18820        29.20636        -0.05187
C          5.05188        29.79074        -0.64939
C          8.66882         3.51225        -0.64945
C          7.44322         4.31795        -0.95038
C          8.59019         6.18275         0.43232
C          7.33041         5.51065        -0.01285
C          8.55903         7.62663         0.93675
C          7.31691         8.43233         0.53824
C          8.52805        10.50285         1.13675
C          7.28614         9.78677         0.74294
C          8.54514        11.99791         1.11979
C          7.25435        12.71750         0.97883
C          8.48452        14.79170         0.35224
C          7.34749        14.21690         1.23291
C          8.51987        16.35764         0.33080
C          7.25540        17.06056         0.82663
C          8.57995        19.12355         1.05922
C          7.29213        18.44855         1.00086
C          8.57795        20.59567         1.24034
C          7.33372        21.35616         1.01367
C          8.61222        23.50774         0.89240
C          7.42094        22.76007         0.79387
C          8.60583        24.97564         0.81736
C          7.37849        25.69058         0.73469
C          8.61191        27.92162         0.97537
C          7.29199        27.15246         1.19097
C          8.64219        29.24768         0.29648
C          7.43420        29.84676        -0.12943
C         11.10317         3.44792        -0.28532
C          9.86515         4.15354        -0.29033
C         11.10034         6.24385         0.23083
C          9.87527         5.54903         0.07435
C         11.12132         7.64660         0.49756
C          9.82792         8.37268         0.53411
C         11.08667        10.57330         1.02071
C          9.81192         9.84238         0.74249
C         11.08264        12.05412         0.87734
C          9.83204        12.71169         0.85533
C         11.00099        14.80915         1.04072
C          9.80687        14.10991         0.74104
C         10.75345        16.17715         1.44488
C          9.69940        16.94901         1.05302
C         11.06507        19.08894         0.81077
C          9.76227        18.40473         1.16262
C         11.01232        20.55430         0.51387
C          9.85993        21.33868         1.04601
C         11.08297        23.47778         1.00312
C          9.87026        22.81956         0.95750
C         11.09094        24.94423         1.14019
C          9.82813        25.66463         0.96600
C         11.16490        27.80784         0.52552
C          9.90066        27.14067         0.95721
C         11.13532        29.23780         0.21797
C          9.86630        29.87327         0.04638
C         13.56008         3.41547        -0.09001
C         12.32936         4.11273        -0.08267
C         13.56494         6.25021         0.19388
C         12.33706         5.54054         0.10745
C         13.56121         7.66084         0.39226
C         12.34150         8.34511         0.57008
C         13.53869        10.59296         0.40750
C         12.36162         9.80656         0.89717
C         13.58736        12.06445         0.67807
C         12.31128        12.78095         0.84989
C         13.59281        14.89633         1.51107
C         12.28259        14.18489         1.06204
C         13.71636        16.38078         1.11677
C         12.65722        17.22365         1.44719
C         13.55516        19.10134         0.27752
C         12.43322        18.48931         0.87629
C         13.48903        20.51919        -0.24404
C         12.25200        21.32276         0.17426
C         13.62812        23.46837         0.54359
C         12.30696        22.77540         0.53295
C         13.66152        24.95682         0.65368
C         12.39441        25.71048         0.96426
C         13.68346        27.85410         0.60870
C         12.35045        27.13092         0.54483
C         13.62082        29.29201         0.13245
C         12.33283        29.91745        -0.00353
C         16.02537         3.39762        -0.03068
C         14.79334         4.10207        -0.00179
C         16.03977         6.25171         0.00291
C         14.80050         5.53118         0.09761
C         16.04614         7.65204        -0.01984
C         14.87099         8.40537         0.54215
C         16.05491        10.66046        -0.16153
C         14.77747         9.84843         0.05755
C         16.12111        11.91695         0.72260
C         14.80258        12.69353         0.76471
C         16.15052        14.87370         0.69695
C         14.88760        14.13422         1.11823
C         16.09445        16.31320         0.38757
C         14.85141        17.01266         0.52784
C         15.96178        19.07433        -0.47610
C         14.76801        18.39480         0.17323
C         16.03916        20.53361        -0.06426
C         14.76477        21.26553         0.12048
C         15.91556        23.38218        -0.43888
C         14.78019        22.73144        -0.03577
C         15.80232        24.82290        -0.77237
C         14.68523        25.64846        -0.20414
C         15.96633        27.76680        -0.47749
C         14.81819        27.11838        -0.07878
C         16.12996        29.20960         0.09417
C         14.80659        29.93366        -0.11019
C         18.50184         3.38069         0.03028
C         17.25550         4.08525        -0.02681
C         18.51443         6.21877        -0.09195
C         17.26815         5.50885        -0.07435
C         18.53118         7.61340        -0.24181
C         17.26569         8.39192        -0.49977
C         18.51241        10.51607         0.01018
C         17.32626         9.83403        -0.03609
C         18.51479        11.97585         0.04871
C         17.35092        12.70479         0.26732
C         18.51476        14.86102        -0.06516
C         17.35034        14.13697         0.21372
C         18.54023        16.30132        -0.02864
C         17.28854        17.00667         0.04023
C         18.47877        19.13919        -0.35128
C         17.27973        18.40237        -0.20544
C         18.47097        20.57913        -0.54293
C         17.24862        21.30208        -0.42618
C         18.37918        23.42804        -0.94121
C         17.18018        22.68669        -0.62475
C         18.33248        24.82883        -1.19646
C         16.99377        25.51118        -1.39629
C         18.12618        27.61222        -1.67683
C         17.03817        27.00314        -1.08752
C         18.29792        29.78925        -1.16640
C         17.35846        30.05728        -0.22940
C         19.70139         4.06275         0.06763
C         20.99128         6.18404        -0.00549
C         19.74283         5.47781         0.00585
C         21.04268         7.53361        -0.18622
C         19.81107         8.30874        -0.37513
C         21.04488        10.57532         0.04339
C         19.80500         9.82566        -0.27238
C         21.03563        11.91535        -0.02040
C         19.77819        12.64672        -0.31529
C         21.01931        14.93774        -0.30776
C         19.77015        14.16700        -0.41220
C         20.99563        16.28568        -0.19936
C         19.74868        17.02239        -0.16941
C         20.92455        19.21342        -0.48583
C         19.73308        18.45120        -0.30504
C         20.89870        20.57153        -0.71764
C         19.67328        21.30027        -0.75350
C         20.79662        23.49293        -1.23592
C         19.62787        22.73416        -0.96916
C         20.74061        24.85388        -1.47365
C         19.50694        25.55520        -1.48475
C         20.55464        27.82828        -1.82646
C         19.43593        27.00951        -1.74278
C         20.65055        29.25806        -1.64998
C         19.70005        30.16143        -1.24336
O         19.72865        13.31800        -1.61876
O          8.58204        11.21616         2.39259
O         17.95005        28.88966        -2.19284
O          3.99132        14.33022         2.39131
O          5.20204        25.12356         1.79585
O          2.72839        10.09049         1.61205
O          2.69647        16.83219         2.40362
O         15.50371        20.77421         1.28853
O          4.94476        27.85671         1.58393
O         11.83000        10.12214         2.21317
O          9.42333        20.96122         2.40115
O         11.99223        22.32584        -0.87243
O         13.80257        10.13696        -0.97943
O         11.67339        16.75227         2.31359
O          7.82365         5.26009         1.32390
O          1.34596         7.72213         0.69590
O         10.75865        19.61495        -0.57942
O         14.58853        25.11511        -1.58159
O          9.42874        27.84542         2.17554
O         19.84119         9.20493        -1.60723
O          2.82502         5.57511         0.35221
O         15.91122        14.45052         2.13335
O         11.88397        25.46260         2.29619
O          9.69211         9.28705        -0.61709
O         14.08097        24.13701         1.77867
O          3.34802        19.46203         2.76055
H          3.17658        18.54577         3.09903
O          7.76421        14.41202         2.60703
H          7.10245        13.99308         3.19721
O          8.59214         7.57537         2.37892
H          7.96642         6.86725         2.65426
O          7.63978         4.90892        -2.30053
H          7.79450         4.16898        -2.92562
O          3.96900        23.22999        -1.81481
H          4.89519        23.53067        -1.99521
O          5.17321         6.15795        -2.33396
H          6.08909         5.88623        -2.59714
O         15.78816        19.01470        -1.92091
H         14.91221        19.42530        -2.13322
O          2.77262        14.29637        -0.98703
H          2.02860        13.96128        -1.53187
O         17.14703         8.51348        -1.98306
H         18.03845         8.81725        -2.29129
O         16.33253        29.01898         1.52290
H         15.53583        28.57929         1.91520
O         13.51285        14.83970         2.95103
H         14.42770        14.96237         3.29335
O          1.92671        12.67026         2.19968
H          2.06127        11.72906         2.46524
O          5.48546         6.22407         1.33477
H          5.37709         5.28325         1.58528
O          0.95151        20.93879         2.28304
H          1.74942        20.51674         2.69430
O         15.12544         8.53441         1.98657
H         15.13486         7.63464         2.37594
O          8.64814        16.74564        -1.07512
H          8.93616        17.68472        -1.09891
O         16.05018        11.13656        -1.52319
H         16.06403        10.34346        -2.10709
O          6.63972         7.98835        -1.63484
H          6.98359         8.90175        -1.72835
O         16.36690        11.50522         2.08720
H         16.33422        12.31677         2.64175
O         13.97090        27.85389         2.05090
H         13.18078        28.19573         2.52201
O         16.79585        25.43813        -2.84478
H         15.82713        25.54003        -2.99633
O          8.18876        14.31247        -0.97413
H          8.48495        15.00458        -1.61030
O          7.12036        27.06237         2.61880
H          6.20172        26.73827         2.77622
O          6.57870        23.62593        -1.24645
H          6.94563        22.77001        -1.55653
O         13.46065        20.42753        -1.69433
H         12.93510        21.19562        -2.02357
H          1.56328         2.81480        -2.94103
H         -0.38779         4.25038        -3.44651
H         -0.57693         6.54604        -2.56585
H         -0.82107         8.30677        -1.73056
H         -0.79759        10.65190        -1.26214
H         -0.97856        12.40353        -0.53370
H         -1.06795        14.75595        -0.08400
H         -1.10961        16.68645         0.13170
H         -1.03758        19.10538         0.16921
H         -1.07992        21.06018         0.34595
H         -0.88640        23.21134        -0.74235
H         -0.60246        24.90066        -1.82925
H         -0.44459        27.28170        -2.43196
H          0.79035        29.45434        -2.42292
H          3.79694         2.56334        -1.91232
H          2.82056        30.75511        -1.84806
H          6.18729         2.45358        -1.17647
H          5.14332        30.81315        -1.04695
H          8.69196         2.44906        -0.93277
H          7.48837        30.82456        -0.63211
H         11.10299         2.36632        -0.48456
H          9.85406        30.89432        -0.36517
H         13.56000         2.32154        -0.20345
H         12.29872        30.98117        -0.28477
H         16.01653         2.29816        -0.05212
H         14.80632        30.98990        -0.42122
H         18.48892         2.28204         0.06849
H         17.61761        30.76207         0.57534
H         20.64852         3.50703         0.12839
H         21.92194         5.60754         0.10151
H         22.01166         8.04716        -0.24794
H         21.97887        10.03105         0.24371
H         21.96470        12.48052         0.14190
H         21.97890        14.41282        -0.41062
H         21.94739        16.83250        -0.17044
H         21.90158        18.71284        -0.45858
H         21.85278        21.09625        -0.86165
H         21.77611        22.99701        -1.26848
H         21.67575        25.38891        -1.68893
H         21.53659        27.33208        -1.88114
H         21.68540        29.63545        -1.68870
H         20.02100        31.16742        -0.93275
