         647
 CSIRO Nanostructure Databank - Neutral Graphene Oxide Data Set
C          5.83073        31.69978         0.23564
C          5.82140        33.06268         0.13049
C          8.19264        27.41700         0.92144
C          8.20916        28.77856         0.78794
C          7.01745        29.55975         0.55112
C          8.25859        31.68113         0.81866
C          7.02964        30.94309         0.52711
C          8.18804        33.19406         1.00844
C          7.00057        33.86130         0.35304
C          8.26915        35.98186         0.19213
C          7.04751        35.20683         0.07393
C          8.31990        37.36263         0.11920
C         10.55605        22.97373         1.02429
C         10.63021        24.46288         1.01499
C          9.48019        25.17924         0.92040
C         10.66457        27.34848         1.59332
C          9.39947        26.61867         1.26396
C         10.62298        28.85153         1.55548
C          9.53025        29.51717         0.73323
C         10.69923        31.70594         1.29235
C          9.42204        30.99770         1.04374
C         10.71459        33.17871         0.93173
C          9.47279        33.87675         0.59731
C         10.76090        35.96261         0.31600
C          9.51167        35.24049         0.33665
C         10.79872        37.35689         0.35769
C          9.55808        38.09084         0.23878
C         10.82538        40.19793         0.32443
C          9.60127        39.48395         0.17030
C         10.86782        41.59970         0.19216
C         13.32145        19.00738        -0.34988
C         13.15276        20.38814         0.01234
C         11.84366        20.84631         0.24172
C         13.29640        23.45652         0.12631
C         11.45269        22.23629         0.30314
C         13.23901        24.61339         0.87015
C         11.94594        25.13962         1.46592
C         13.16748        27.33589         1.66551
C         11.97625        26.66355         1.46966
C         13.18719        28.81195         1.90327
C         11.91913        29.58414         1.70237
C         13.21516        31.66267         1.09202
C         11.97880        30.98585         1.27903
C         13.22269        32.99544         0.61370
C         11.98274        33.71324         0.39412
C         13.31436        35.88927         0.34473
C         12.01159        35.22181         0.15189
C         13.32505        37.33028         0.59244
C         12.05585        38.05898         0.51953
C         13.24677        40.18396         0.99616
C         12.03442        39.45199         0.59021
C         13.26095        41.67712         0.88917
C         12.05859        42.35705         0.35713
C         13.37265        44.44438         0.12017
C         12.13082        43.72246         0.10241
C         13.38597        45.84063        -0.12481
C         15.62871        14.78443        -1.11412
C         15.74351        16.13063        -0.58208
C         14.60612        16.96592        -0.71336
C         15.61233        18.86318         0.61532
C         14.53294        18.31377        -0.28954
C         15.68117        20.46792         0.63444
C         14.38816        21.18222         0.16132
C         15.69421        23.31648         0.28464
C         14.43143        22.56095         0.17239
C         15.68464        24.61838         0.97630
C         14.48246        25.25359         1.28646
C         15.67317        27.38208         1.74525
C         14.46297        26.65576         1.65267
C         15.74469        28.81321         1.64250
C         14.48263        29.57849         1.75489
C         15.69772        31.64385         1.01093
C         14.46704        30.97677         1.28744
C         15.71046        32.93934         0.47468
C         14.45091        33.63362         0.02753
C         15.76519        35.77715         0.55373
C         14.46120        35.13509         0.31290
C         15.81632        37.25970         0.77753
C         14.53652        37.99616         0.74373
C         15.84656        40.21852         0.84235
C         14.57489        39.44763         1.01343
C         15.86074        41.57725         0.78633
C         14.60281        42.38022         0.81109
C         15.84608        44.44484         0.12862
C         14.60697        43.76618         0.31438
C         15.84347        45.86189        -0.09053
C         14.58599        46.57040        -0.15828
C         15.74447        48.76273        -0.22471
C         14.57371        47.98889        -0.27704
C         15.69678        50.16099        -0.17963
C         18.17332        10.49707        -1.73857
C         18.05664        11.86743        -1.42251
C         16.76830        12.47558        -1.46171
C         18.40367        14.75026        -0.48745
C         16.52153        13.74416        -0.86331
C         18.23593        16.15183        -0.44841
C         16.99337        16.76389        -0.21572
C         18.19175        19.02093        -0.10018
C         17.05590        18.16898         0.38957
C         18.18908        20.42151         0.06207
C         16.95762        21.10777         0.13879
C         18.22421        23.28021         0.46113
C         16.97822        22.58022         0.12240
C         18.22824        24.58195         0.94211
C         16.95737        25.17950         1.40547
C         18.23011        27.38935         1.75370
C         16.95385        26.66752         1.84033
C         18.23445        28.81657         1.68783
C         16.95455        29.50737         1.56083
C         18.16153        31.60891         1.15776
C         16.96354        30.93950         1.27543
C         18.23108        32.96041         0.57471
C         16.97018        33.62442         0.15935
C         18.25970        35.85166         0.15840
C         16.95304        35.12074        -0.10802
C         18.22044        37.31615         0.13433
C         17.08569        37.99670         0.49770
C         18.42576        40.15866         0.83773
C         17.11164        39.40920         1.09308
C         18.40981        41.61165         0.61267
C         17.14366        42.38544         0.92087
C         18.28568        44.42515        -0.04271
C         17.07882        43.74655         0.24606
C         18.27287        45.85140        -0.29798
C         17.06325        46.56799        -0.21243
C         18.27626        48.81326        -0.54450
C         17.06634        48.06678         0.05512
C         18.04338        50.26147        -0.81554
C         16.89367        50.95809        -0.26998
C         18.27981        53.07038        -0.20562
C         16.95924        52.33710        -0.12566
C         18.16997        54.50919        -0.63020
C         20.67170         6.39254        -2.77320
C         20.68363         7.69315        -2.29029
C         19.45721         8.44941        -2.20836
C         20.65885        10.45532        -1.31907
C         19.39990         9.77239        -1.80115
C         20.63891        11.92562        -1.69217
C         19.34302        12.66730        -1.48021
C         20.69348        14.84709        -1.22669
C         19.47090        14.10388        -1.11559
C         20.73463        16.20315        -0.88610
C         19.44565        16.92051        -0.80278
C         20.73399        19.06492        -0.34174
C         19.43674        18.40442        -0.58509
C         20.68194        20.47823        -0.10653
C         19.45134        21.14042        -0.07542
C         20.74109        23.33571         0.15897
C         19.44439        22.60392         0.01226
C         20.72846        24.61743         0.91724
C         19.43955        25.32470         1.11181
C         20.72157        27.35037         1.77783
C         19.43291        26.66291         1.55763
C         20.73665        28.89009         1.88478
C         19.44409        29.52593         1.65910
C         20.67928        31.69162         1.72220
C         19.48583        30.90935         1.08198
C         20.65856        33.20587         1.47093
C         19.41924        33.80378         0.89483
C         20.75695        35.79291         0.03113
C         19.43909        35.18425         0.36039
C         20.75329        37.23945        -0.33746
C         19.46192        38.06428        -0.31197
C         20.86416        40.15062        -0.02823
C         19.64798        39.40516         0.36168
C         20.84418        41.56212         0.04896
C         19.57839        42.29134         0.25001
C         20.75782        44.46323        -0.16443
C         19.52110        43.70690         0.00699
C         20.68971        45.84100        -0.69378
C         19.50254        46.52763        -0.68037
C         20.76299        48.57190        -1.56908
C         19.51438        48.01378        -0.92137
C         20.81597        49.96217        -1.96281
C         18.96171        51.06787        -1.49272
C         20.49587        53.04320        -1.49325
C         19.25782        52.39603        -1.15232
C         20.56644        54.43787        -1.28846
C         19.32282        55.17567        -1.04798
C         20.53567        57.33171        -1.35955
C         19.33557        56.58189        -1.23243
C         20.48112        58.72689        -1.53744
C         23.20263         3.63933        -3.53992
C         21.98079         4.28194        -3.43847
C         23.23096         6.29124        -2.46599
C         21.86356         5.55005        -2.73171
C         23.16323         7.73825        -2.33184
C         21.95327         8.37694        -2.04398
C         23.15288        10.47047        -1.56252
C         21.95239         9.77894        -1.71921
C         23.17774        11.90379        -1.30574
C         21.95350        12.66192        -1.65070
C         23.24342        14.85004        -1.14727
C         21.96746        14.16216        -1.53688
C         23.18961        16.22845        -0.61970
C         21.96732        16.91675        -0.64929
C         23.19072        18.97775        -0.03755
C         21.93997        18.33510        -0.35125
C         23.16038        20.41403         0.28315
C         21.93394        21.20421         0.03642
C         23.26418        23.35128        -0.03013
C         21.99148        22.56238         0.17138
C         23.29995        24.72754         0.58212
C         22.03272        25.33440         1.05252
C         23.26720        27.40475         1.67131
C         21.96386        26.84109         1.07689
C         23.24506        28.92245         1.69768
C         22.01856        29.58574         1.64260
C         23.18218        31.80646         1.91388
C         22.01332        31.05811         1.29536
C         23.24864        33.24070         1.57203
C         21.95951        34.05123         1.47059
C         23.32639        35.85284         0.43746
C         22.06017        34.99795         0.26164
C         23.36942        37.22767        -0.08740
C         22.06723        37.97938        -0.41222
C         23.31796        40.12128        -0.34843
C         22.06925        39.44677        -0.28069
C         23.30411        41.55762        -0.33611
C         22.05836        42.23921        -0.17921
C         23.26969        44.33350        -0.85219
C         22.06788        43.70715        -0.17529
C         23.18900        45.83157        -0.71767
C         21.93752        46.41765        -1.33141
C         23.24122        48.62474        -1.54259
C         21.95308        47.91394        -1.40197
C         23.18176        50.13862        -1.62867
C         21.86717        50.80175        -1.72817
C         23.04665        53.05968        -1.73343
C         21.74972        52.29244        -1.86325
C         23.01027        54.51481        -1.52129
C         21.79981        55.18814        -1.40161
C         23.03728        57.33983        -1.41984
C         21.79962        56.63157        -1.34999
C         23.05180        58.80615        -1.27853
C         21.66310        59.56007        -1.39917
C         22.93389        61.59857        -1.98081
C         21.72743        60.93229        -1.87715
C         24.42510         4.24464        -3.18785
C         25.70768         6.29136        -2.67367
C         24.49854         5.61368        -2.82029
C         25.77073         7.75139        -2.55189
C         24.40565         8.51270        -2.45196
C         25.62418        10.45559        -1.51135
C         24.42475         9.83852        -1.83159
C         25.56731        11.72253        -0.75142
C         24.33553        12.52856        -0.91387
C         25.56864        14.63499        -0.07593
C         24.45124        14.00596        -0.85099
C         25.60702        16.11904        -0.02241
C         24.41933        16.85182        -0.20916
C         25.65791        18.94364         0.31760
C         24.39857        18.27344         0.04444
C         25.69812        20.35433         0.35671
C         24.47012        21.15070         0.41935
C         25.74399        23.28937         0.11346
C         24.53991        22.60787         0.20295
C         25.75486        24.75703         0.32237
C         24.48750        25.40463         0.65686
C         25.73511        27.53118         1.39028
C         24.47661        26.91525         0.85263
C         25.74572        28.89842         1.68714
C         24.48561        29.60874         1.75850
C         25.74126        31.80292         1.93506
C         24.48461        31.05304         2.04344
C         25.72008        33.16629         1.65975
C         24.45736        33.87664         1.41561
C         25.74349        35.99327         0.97009
C         24.48280        35.27962         0.96275
C         25.79962        37.35710         0.52816
C         24.58771        38.03297         0.11112
C         25.83875        40.10989        -0.44889
C         24.56092        39.38568        -0.24317
C         25.81790        41.61414        -0.40745
C         24.52918        42.30618        -0.30456
C         25.71942        44.46826        -0.21015
C         24.53944        43.71659        -0.34917
C         25.72088        45.91910        -0.30964
C         24.43137        46.62575        -0.52371
C         25.61398        48.78561        -0.76835
C         24.47146        48.04320        -0.94614
C         25.64532        50.22016        -0.96514
C         24.34052        50.89534        -1.09850
C         25.58238        53.08955        -1.16622
C         24.29206        52.38074        -1.22078
C         25.50638        54.55735        -1.16827
C         24.30132        55.20975        -1.83039
C         25.51210        57.41484        -1.67483
C         24.26435        56.68933        -1.58562
C         25.46380        58.83774        -1.81831
C         24.26392        59.54803        -1.67717
C         24.17767        60.94568        -1.86418
C         26.94774         8.45354        -2.05546
C         28.10625        10.54381        -1.39250
C         26.90425         9.79221        -1.65947
C         28.11125        11.83577        -0.86248
C         26.84774        12.38509        -0.31478
C         28.13301        14.51197         0.45687
C         26.81087        13.82380         0.14692
C         28.04693        16.02909         0.38324
C         26.85891        16.75695         0.31955
C         28.08417        18.91712         0.69886
C         26.87557        18.21141         0.44906
C         28.11316        20.32249         0.60069
C         26.91704        21.04913         0.40535
C         28.20531        22.98805        -0.16968
C         26.95944        22.47670         0.16078
C         28.18973        25.10282         0.05507
C         26.91763        25.52211         0.50977
C         28.24757        27.46741         1.52005
C         26.95007        26.67918         1.51038
C         28.23642        28.88546         1.84560
C         26.99338        29.57585         1.92685
C         28.25719        31.74142         1.95493
C         26.98817        31.03124         2.33308
C         28.20105        33.21045         1.96042
C         26.94855        33.92802         1.64170
C         28.23071        36.00887         1.21831
C         26.95714        35.30318         1.33165
C         28.24396        37.43081         0.87163
C         27.02689        38.05952         0.49848
C         28.30998        40.22661         0.19506
C         27.15385        39.35303        -0.27318
C         28.36649        41.67150        -0.25580
C         27.03623        42.38595        -0.13838
C         28.16916        44.54150         0.28556
C         26.95841        43.75816        -0.01941
C         28.12928        46.04297         0.22507
C         26.85607        46.67681        -0.16569
C         28.10872        48.87899        -0.43923
C         26.81076        48.18370        -0.06775
C         28.08971        50.24859        -0.68984
C         26.81731        50.95953        -0.84621
C         28.02825        53.17679        -1.01241
C         26.78354        52.41600        -0.96408
C         28.03538        54.53332        -1.19773
C         26.80961        55.34132        -1.18717
C         26.73823        56.73215        -1.64699
C         29.26724        12.66243        -0.86745
C         30.47176        14.74604        -0.41940
C         29.30814        13.96710        -0.33893
C         30.56770        16.07210         0.10351
C         29.33880        16.68669         0.67250
C         30.63863        18.89879         0.76252
C         29.35738        18.19055         0.91744
C         30.67778        20.33932         0.98386
C         29.34719        21.09280         0.84913
C         30.62882        23.20319         0.39350
C         29.43750        22.46430         0.33444
C         30.62790        24.70449         0.25102
C         29.40208        25.50444         0.58894
C         30.73779        27.38082         1.55389
C         29.43054        26.77562         1.25939
C         30.75455        28.87824         1.94392
C         29.47012        29.60880         1.94547
C         30.73325        31.77710         1.72446
C         29.47259        31.05500         1.93079
C         30.73421        33.12108         1.43517
C         29.52533        33.93069         1.68126
C         30.68984        36.03897         0.93018
C         29.43191        35.32592         1.24959
C         30.72164        37.49679         1.32429
C         29.44348        38.16841         0.87803
C         30.72712        40.30751         0.77272
C         29.46114        39.58676         0.62655
C         30.69854        41.79875         0.99279
C         29.51016        42.46961         0.33564
C         30.66819        44.66593         0.53606
C         29.45919        43.82433         0.33069
C         30.62197        46.03133        -0.08919
C         29.37428        46.79559        -0.03458
C         30.61200        48.86929        -0.51877
C         29.35216        48.14906        -0.36292
C         30.53530        50.29861        -0.69905
C         29.33934        50.96874        -0.79482
C         29.37366        52.47603        -0.93668
C         31.73269        16.82137        -0.01352
C         33.03830        18.92555         0.32088
C         31.82433        18.21760         0.36370
C         33.16477        20.29438         0.93199
C         31.90357        21.11201         0.78385
C         33.14014        23.24346         0.65650
C         31.87597        22.50176         0.65850
C         33.16691        24.60074         0.53107
C         31.93296        25.41656         0.40139
C         33.14646        27.48615         1.06637
C         31.96358        26.79506         0.98072
C         33.18666        28.90173         1.40710
C         32.02542        29.58545         1.71830
C         33.27686        31.76516         1.56325
C         32.04021        31.04939         2.06253
C         33.19420        33.27630         1.67775
C         31.99747        33.76793         0.85857
C         33.24459        36.06478         0.90609
C         31.97298        35.29203         0.80526
C         33.15615        37.49307         0.68322
C         31.97319        38.18684         0.83543
C         33.20497        40.38130         0.84952
C         31.92298        39.63473         0.78161
C         33.19357        41.84452         0.64151
C         32.00556        42.50844         0.68739
C         33.24164        44.70831         0.26810
C         31.99293        43.98447         0.63240
C         33.20721        46.05837        -0.00332
C         31.94056        46.77212        -0.30456
C         31.83597        48.22846        -0.38250
C         34.35549        21.05707         0.47476
C         35.68361        23.23113         0.57627
C         34.42925        22.48099         0.94378
C         35.71358        24.60153         0.52094
C         34.43395        25.34622         0.43653
C         35.69345        27.46382         1.16430
C         34.41647        26.82415         0.66587
C         35.64373        28.96202         0.94801
C         34.43871        29.62666         1.17213
C         35.54674        31.81423         0.50820
C         34.38796        31.08325         1.15294
C         35.73229        33.21588         1.05539
C         34.50469        33.99705         1.38938
C         35.71314        36.16678         0.78401
C         34.47627        35.44702         1.07005
C         35.67885        37.48577         0.37880
C         34.37578        38.20604         0.15560
C         35.68572        40.38989         0.18103
C         34.47531        39.64332         0.61402
C         35.65000        41.77442         0.13758
C         34.45199        42.54395         0.36709
C         34.45072        43.92714         0.22352
C         36.91780        25.37637         0.44568
C         38.09920        27.51711         0.43854
C         36.92759        26.76671         0.61971
C         38.09431        28.93965         0.45300
C         36.86568        29.66012         0.64743
C         38.03363        31.75121         0.12145
C         36.86093        31.06474         0.46432
C         37.97039        33.22016        -0.23867
C         36.98961        33.94558         0.66779
C         38.13431        36.11380        -0.03774
C         37.00349        35.44459         0.65837
C         38.07598        37.46851        -0.26917
C         36.87339        38.21880        -0.00644
C         36.84237        39.61012        -0.13528
C         39.28099        29.66010         0.17133
C         40.48046        31.78883        -0.28946
C         39.26847        31.04992         0.00633
C         40.49532        33.14925        -0.40466
C         39.29955        33.93957        -0.26912
C         39.31605        35.31557        -0.28047
O         31.22405        35.74739        -0.40310
O         21.48870        24.59000         2.18683
O         24.30184        14.66788        -2.15439
O         16.97460        25.57829         2.80951
O         22.08472        13.51865        -2.83486
O         10.71816        32.76421         2.34330
O         23.62849        31.41389         3.22285
O         13.83147        42.30233         2.06840
O         19.42816        39.58496         1.79105
O         28.04153        45.35287         1.52618
O         29.40164        17.22302         2.03143
O         13.83263        39.73576         2.25048
O         35.42619        33.50137         2.44306
O         31.30907        25.27211        -0.93200
O         19.87606        12.34078        -2.83861
O         10.93000        29.44840         2.82568
O         19.41854        48.68470         0.40600
O         31.23216        46.07553        -1.42242
O         22.88721        37.42940        -1.47831
O         25.11125         8.40900        -3.71343
O         25.87611        40.83601        -1.74198
O         12.19320        23.04198        -0.59992
O         30.86070        27.80739         2.94101
O         22.51973         5.57667        -1.42039
O         17.85072        32.94441        -0.86141
O         25.83978        14.01208         1.22864
O         19.66021        33.80800         2.36271
O         15.95289        36.29054         1.89842
O         23.98519        51.70877         0.07081
O         22.38039        59.32589        -0.12782
O         19.65798        50.46546        -2.54196
O         11.88476        34.27054        -0.97753
O         20.85906        27.96906         3.05270
O         21.64764        44.34760         1.05169
O         29.91877        20.83024         2.15894
O         15.20191        18.46346         1.88998
O         31.31750        44.57979         1.84233
O         23.47717        46.35847         0.59726
O         17.45310        13.98675         0.17541
O         23.48998        49.32793        -2.81174
O         23.68362        20.75808         1.62119
O         19.24096        17.83108        -1.95090
O          9.83271        26.81755         2.68891
O         28.23669        24.14034        -0.96274
O         34.44635        26.32388        -0.69319
O         37.53717        34.66563         1.79819
O         22.50655        52.72333        -3.06728
O         16.35669        23.28214        -1.05265
O         20.67874        36.22859        -1.39278
O         26.11950        11.51817         0.60746
O         20.06142        23.34805        -1.12945
O         25.98016        55.16289         0.05080
O         28.99656        33.78790         3.05242
O         34.05695        39.91949         1.97643
O         13.88221        29.29027         3.09225
O         23.23044        23.61613        -1.49273
H         24.06542        24.07248        -1.73305
O         27.54067        38.88170        -1.61239
H         27.06093        39.44154        -2.26606
O         15.80821        20.80492         2.03599
H         15.49463        19.96442         2.50840
O         26.87132        25.99880         2.81575
H         26.79001        26.69001         3.50785
O         10.00156        29.42082        -0.65161
H          9.28150        29.73470        -1.23904
O         28.44117        14.21571         1.84392
H         27.59599        14.28195         2.34313
O         34.20878        38.29610        -1.29768
H         34.05681        37.39129        -1.64317
O         21.92249        34.91670         2.62335
H         21.70937        34.37625         3.41302
O         30.17383        52.83994        -2.07651
H         29.77348        52.43621        -2.87360
O         35.69749        27.24031         2.60494
H         36.47385        27.70179         2.98518
O         16.73909        35.30251        -1.53320
H         17.15355        34.53347        -1.98612
O         23.22679        44.00095        -2.26272
H         23.48746        43.06125        -2.36715
O         19.71636        30.75850        -0.36687
H         19.02855        31.26650        -0.85643
O         26.97578        31.02862         3.81090
H         27.20719        31.93284         4.11529
O         28.64963        41.63267        -1.69870
H         27.83176        41.29564        -2.13547
O         26.63902        48.46998         1.35893
H         25.88184        47.93913         1.68752
O         23.42897        26.89176         2.99736
H         22.65586        27.18456         3.53364
O         32.06309        31.09308         3.52299
H         32.12960        32.04907         3.76847
O         32.17208        33.28909        -0.49033
H         31.66714        33.89963        -1.07571
O         12.03103        24.78633         2.88503
H         11.33452        25.30752         3.34702
O         14.40300        33.45584        -1.43295
H         13.51755        33.78971        -1.72211
O         37.44916        33.31474        -1.59822
H         36.58784        32.82372        -1.62306
O         34.53477        22.40411         2.41988
H         34.09703        21.55759         2.71072
O         19.21559        38.42902        -1.70089
H         19.38305        37.62013        -2.23687
O         32.87652        33.61685         3.05534
H         33.72618        33.59598         3.55340
O         35.14252        32.02672        -0.89376
H         34.88478        31.15696        -1.26786
O         20.59411        31.50088         3.14278
H         19.92990        32.13918         3.48833
O         24.35690        27.46937        -0.50685
H         25.16637        27.22655        -1.00485
O          8.04182        33.42894         2.44381
H          8.89570        33.15859         2.86271
O         22.24517        34.18117        -0.90706
H         22.13464        34.77165        -1.68685
O         30.74372        37.52669         2.78074
H         30.83595        38.46134         3.06475
O         21.89746        46.01666        -2.73209
H         21.18746        46.52156        -3.18040
O         20.62368        10.45321         0.14427
H         20.63622         9.52042         0.44660
O         17.22462        42.69049         2.35532
H         18.05266        43.19204         2.51284
O         24.53338        54.99657        -3.27724
H         23.69216        54.69625        -3.68596
O         17.55602        17.97409         1.73884
H         16.70821        18.01248         2.30265
O         17.03099        39.14232         2.51450
H         17.94720        38.98615         2.83945
O         33.29005        20.03991         2.44376
H         32.37986        19.90900         2.79247
O         22.25208        31.21447        -0.11825
H         21.45551        30.88651        -0.60552
O         21.75869        27.27466        -0.28825
H         22.63015        27.30290        -0.75468
O         17.18966        48.15155         1.50155
H         18.15495        48.16852         1.70607
O         30.47182        41.96618         2.43188
H         30.63403        42.92200         2.63228
O         18.86124        53.03817         1.15222
H         19.70616        53.53562         1.12156
H          4.90621        31.13479         0.04468
H          4.89407        33.57690        -0.16521
H          7.23422        26.87831         0.84708
H          6.06266        29.02688         0.42238
H          6.14348        35.71551        -0.29710
H          7.38865        37.93738         0.00213
H          9.81759        22.49865         1.68779
H          8.53311        24.66274         0.69800
H          8.67202        40.05168         0.01383
H          9.94408        42.13122        -0.08219
H         12.42975        18.46796        -0.71045
H         11.05898        20.07924         0.34694
H         11.22149        44.26248        -0.20123
H         12.42922        46.37208        -0.23570
H         14.77451        14.59215        -1.78176
H         13.70876        16.53109        -1.18410
H         13.60263        48.49843        -0.37639
H         14.71949        50.66707        -0.14278
H         17.24529         9.93575        -1.93368
H         15.94199        11.90965        -1.92053
H         16.06970        52.89634         0.19963
H         17.23198        55.06678        -0.49041
H         19.73593         5.96673        -3.16500
H         18.52660         7.94241        -2.50804
H         18.38169        57.12864        -1.16870
H         19.52018        59.20254        -1.78440
H         23.23516         2.63771        -3.99309
H         21.08642         3.84972        -3.90972
H         22.92983        62.65889        -2.27196
H         20.79656        61.42241        -2.19719
H         25.36104         3.69336        -3.35727
H         26.65048         5.72372        -2.70728
H         26.40084        59.39054        -1.98442
H         25.09901        61.51101        -2.06372
H         27.88657         7.88960        -1.94968
H         29.06436        10.10150        -1.70522
H         28.99733        55.04233        -1.36408
H         27.67236        57.28055        -1.84293
H         30.18028        12.26724        -1.34020
H         31.35576        14.32213        -0.92171
H         31.47501        50.86626        -0.77276
H         29.91639        52.88684        -0.04214
H         32.63239        16.34245        -0.42889
H         33.95720        18.39741         0.02593
H         34.15105        46.59719        -0.18052
H         32.75678        48.82893        -0.32847
H         35.28851        20.50625         0.27231
H         36.63180        22.67210         0.62031
H         36.56105        42.32332        -0.14756
H         35.39372        44.44266        -0.01395
H         37.86927        24.85814         0.24692
H         39.03218        26.99885         0.16806
H         38.94509        37.99444        -0.69221
H         37.76187        40.13406        -0.43852
H         40.22298        29.10640         0.04316
H         41.41742        31.22050        -0.38344
H         41.44842        33.67334        -0.57243
H         40.26685        35.84252        -0.45932
