         424
 CSIRO Nanostructure Databank - Neutral Graphene Oxide Data Set
C          1.33210         3.50704        -1.21955
C          0.12002         4.16878        -1.09143
C          1.25479         6.32301        -0.82699
C          0.07272         5.55637        -0.89685
C          1.23972         7.76188        -0.62201
C          0.03871         8.49886        -0.58673
C          1.18075        10.66025        -0.38918
C          0.01535         9.89896        -0.52882
C          1.18988        12.08493        -0.32803
C          0.01970        12.86489        -0.50291
C          1.21173        14.92264         0.09352
C          0.04097        14.23717        -0.32723
C          1.21285        16.44191         0.15123
C         -0.09096        17.07156         0.60392
C          1.11781        19.12611         1.15977
C         -0.09855        18.34846         1.05962
C          1.01291        20.61091         1.41491
C         -0.01214        21.29410         0.52773
C          0.98451        23.44512         1.22271
C         -0.02835        22.62863         0.44980
C          1.06543        24.89677         0.80180
C         -0.05008        25.59913         0.41109
C          1.13671        27.76243         0.41163
C         -0.03938        27.00353         0.24078
C          1.16598        29.18604         0.15561
C         -0.00997        29.90478        -0.18968
C          1.22700        32.00683        -0.39792
C          0.01616        31.25786        -0.44516
C          1.25253        33.39899        -0.70276
C          0.07864        34.11209        -1.18084
C          1.22664        36.29706        -0.87682
C          0.07084        35.45395        -1.34778
C          1.34398        37.62548        -1.57373
C          3.79727         3.58042        -1.28932
C          2.55505         4.23088        -1.14861
C          3.72891         6.39187        -0.88832
C          2.50870         5.65409        -0.95039
C          3.69490         7.81536        -0.70388
C          2.48501         8.47324        -0.54332
C          3.67005        10.72861        -0.63734
C          2.47874         9.92559        -0.11357
C          3.62806        12.09364         0.00410
C          2.42380        12.78086         0.00739
C          3.65662        14.86424         0.61603
C          2.39625        14.20346         0.28091
C          3.65719        16.30839         0.80258
C          2.32712        16.96445         1.06090
C          3.56927        19.20898         1.11905
C          2.34460        18.48442         1.07770
C          3.57793        20.61523         1.23315
C          2.33378        21.35188         1.27616
C          3.56394        23.47913         1.11938
C          2.32600        22.72644         1.20749
C          3.56620        24.85785         1.01627
C          2.29742        25.64905         1.23464
C          3.54796        27.80944         0.84475
C          2.34918        27.08923         0.76675
C          3.57147        29.20997         0.63313
C          2.39328        29.90470         0.26643
C          3.66905        32.01830        -0.03090
C          2.43788        31.32262        -0.02929
C          3.70542        33.41504        -0.35756
C          2.48212        34.11309        -0.63810
C          3.74301        36.17676        -1.01113
C          2.51764        35.51480        -0.88413
C          3.78940        37.56972        -1.40468
C          2.53591        38.22615        -1.75435
C          6.25454         3.66972        -1.40659
C          5.02372         4.29414        -1.19370
C          6.18568         6.42995        -0.62333
C          4.97530         5.72194        -0.93006
C          6.21576         7.80619        -0.53295
C          4.98591         8.57064        -0.94613
C          6.15064        10.66365        -0.24268
C          4.97977         9.99671        -0.46303
C          6.11370        12.17647        -0.19197
C          4.87758        12.66129         0.59331
C          6.10216        14.82290         1.17199
C          4.83624        14.16042         0.70230
C          6.09704        16.31774         0.99247
C          4.83984        17.00733         0.91235
C          6.08371        19.15671         1.26861
C          4.84650        18.50925         0.72327
C          6.04121        20.59344         1.70650
C          4.80609        21.34262         1.27430
C          6.06479        23.46007         1.19634
C          4.82364        22.74278         1.17903
C          6.10708        24.85960         1.17390
C          4.84197        25.58550         0.91078
C          6.08813        27.75671         1.45577
C          4.84887        27.07601         0.88637
C          6.12536        29.25534         1.13954
C          4.83405        29.96163         0.78902
C          6.13913        31.97180         0.18911
C          4.91017        31.33418         0.25564
C          6.18735        33.47286         0.14322
C          4.93114        34.11018        -0.39148
C          6.22002        36.14176        -0.93282
C          4.96923        35.46952        -0.77571
C          6.24349        37.52298        -1.29450
C          5.00199        38.21350        -1.51833
C          8.77430         3.66831        -1.24930
C          7.51540         4.48440        -1.37656
C          8.67755         6.36672        -0.11542
C          7.38185         5.57098        -0.28545
C          8.66856         7.84576        -0.17406
C          7.43897         8.53899        -0.28228
C          8.63772        10.67786        -0.02637
C          7.42469         9.96123        -0.19872
C          8.61952        12.11336         0.18951
C          7.39988        12.81986         0.27113
C          8.58695        14.89679         0.78328
C          7.38255        14.18056         0.65597
C          8.56579        16.32227         1.09797
C          7.29269        17.01315         1.12468
C          8.52070        19.15051         1.54103
C          7.27513        18.45868         1.30015
C          8.53090        20.58796         1.51502
C          7.33194        21.28834         1.41057
C          8.59662        23.43388         1.24544
C          7.33128        22.69619         0.91774
C          8.59356        24.84829         1.22901
C          7.34009        25.57935         1.18935
C          8.56341        27.71070         0.98678
C          7.36727        27.01061         1.12744
C          8.58374        29.12245         0.66364
C          7.38314        29.88500         0.68822
C          8.61602        31.87462        -0.08510
C          7.38648        31.24238         0.29485
C          8.62826        33.27439        -0.46263
C          7.44730        34.03406        -0.45403
C          8.67724        36.04650        -1.13106
C          7.45007        35.40526        -0.83209
C          8.70012        37.46697        -1.39334
C          7.47444        38.17583        -1.46897
C         11.22927         3.65295        -1.13834
C          9.97009         4.27131        -0.91206
C         11.20490         6.46794        -0.51778
C          9.97623         5.66274        -0.37916
C         11.15578         7.86265        -0.27285
C          9.89381         8.55578        -0.13546
C         11.12219        10.70215         0.10256
C          9.88154         9.98139        -0.02753
C         11.10077        12.12234         0.32192
C          9.85236        12.80924         0.39847
C         11.06623        14.92344         0.77109
C          9.83669        14.21947         0.62460
C         11.06059        16.42921         0.83288
C          9.74731        17.02786         1.26877
C         10.95834        19.15229         1.77914
C          9.74083        18.44517         1.55673
C         10.99579        20.56661         1.71841
C          9.79345        21.28278         1.51025
C         11.04529        23.40816         1.44338
C          9.80048        22.71498         1.40820
C         11.04574        24.82458         1.29288
C          9.82667        25.53602         1.25797
C         11.07111        27.58961         0.64332
C          9.86594        27.03752         1.34974
C         10.97561        28.89450         0.00850
C          9.78001        29.73599         0.21195
C         11.07154        31.75431        -0.50872
C          9.81727        31.11191        -0.14482
C         11.08477        33.15462        -0.81858
C          9.86554        33.90034        -0.83165
C         11.12756        35.94406        -1.41419
C          9.88544        35.29371        -1.13240
C         11.15717        37.39394        -1.62913
C          9.93109        38.11710        -1.57637
C         13.65883         3.77975        -1.43904
C         12.43877         4.38324        -1.08619
C         13.64329         6.53203        -0.69132
C         12.42123         5.80437        -0.76839
C         13.60255         7.91239        -0.37744
C         12.37659         8.59950        -0.22135
C         13.59607        10.75613         0.12798
C         12.35824        10.02143         0.02511
C         13.57153        12.16979         0.35133
C         12.32177        12.84258         0.47501
C         13.54563        14.97717         0.94297
C         12.29471        14.25603         0.72538
C         13.53920        16.30983         1.37775
C         12.23601        16.96319         1.62149
C         13.45103        19.12315         2.50413
C         12.18070        18.38666         2.08874
C         13.47149        20.58454         2.05734
C         12.26432        21.27452         1.80412
C         13.50615        23.40918         1.60955
C         12.27284        22.69174         1.60941
C         13.50934        24.82929         1.30537
C         12.29526        25.51901         1.13491
C         13.52557        27.53370         0.32778
C         12.27770        26.89213         0.68244
C         13.55306        28.88114        -0.07655
C         12.30078        29.58368        -0.37259
C         13.54820        31.70669        -0.65176
C         12.29844        31.04829        -0.49495
C         13.57036        33.09874        -0.97962
C         12.31720        33.81511        -1.09936
C         13.61543        35.95159        -1.47532
C         12.31124        35.20008        -1.41478
C         13.56483        37.25218        -2.30806
C         12.34311        38.04527        -1.93478
C         16.06763         3.93883        -1.96333
C         14.87421         4.51361        -1.47357
C         16.10623         6.58921        -1.00853
C         14.88678         5.87842        -1.02168
C         16.16379         7.91603        -0.36255
C         14.85900         8.62607        -0.10308
C         16.06522        10.82138        -0.01563
C         14.83633        10.09272         0.01118
C         16.04229        12.23243         0.26405
C         14.80239        12.89775         0.46964
C         16.01875        14.99159         1.01474
C         14.78965        14.29137         0.78689
C         16.00949        16.36659         1.42580
C         14.75215        17.03788         1.63301
C         15.97042        19.04411         2.39534
C         14.71655        18.37203         2.10229
C         15.96790        20.62902         2.39787
C         14.69076        21.30159         2.06926
C         15.98567        23.43226         1.90864
C         14.70771        22.69665         1.82309
C         15.99867        24.90726         1.50119
C         14.73612        25.53215         1.09730
C         16.01659        27.47516         0.26127
C         14.75905        26.83653         0.56778
C         16.01868        28.86339        -0.15575
C         14.78784        29.58041        -0.23744
C         16.02835        31.65474        -0.71675
C         14.78778        30.97774        -0.55540
C         16.04133        33.06103        -1.02193
C         14.80639        33.74318        -1.19519
C         16.07292        35.88624        -1.60007
C         14.81929        35.09591        -1.85607
C         16.03616        37.31860        -1.73175
C         14.85000        37.99645        -2.06726
C         18.41677         4.17718        -2.72508
C         17.24392         4.70273        -2.09624
C         18.42715         6.88339        -1.83465
C         17.26536         6.04709        -1.60417
C         18.43439         8.22034        -1.44186
C         17.46944         8.70149        -0.39456
C         18.47368        10.97748        -0.50243
C         17.28529        10.20290        -0.37507
C         18.50753        12.30591         0.02417
C         17.27252        12.94234         0.41510
C         18.50522        14.95144         1.22437
C         17.24723        14.28653         0.86471
C         18.50994        16.38908         1.49665
C         17.25026        17.06965         1.66032
C         18.50342        19.11333         2.52532
C         17.24061        18.39503         2.11214
C         18.47336        20.59947         2.18154
C         17.25529        21.30240         2.10149
C         18.46969        23.40666         1.64782
C         17.25361        22.69388         1.83769
C         18.47098        24.78236         1.21260
C         17.25809        25.48450         1.01328
C         18.48485        27.24339        -0.27296
C         17.22341        26.76305         0.40447
C         18.48518        28.74571        -0.57833
C         17.23542        29.53061        -0.43344
C         18.51313        31.65650        -0.72152
C         17.26225        30.93398        -0.64404
C         18.51147        33.07993        -0.88788
C         17.27681        33.76662        -1.11598
C         18.47120        35.95272        -1.17929
C         17.27556        35.21025        -1.31758
C         18.43866        37.38372        -1.18370
C         17.23235        38.04671        -1.47848
C         19.53329         4.97031        -2.92855
C         20.72314         7.15150        -2.71329
C         19.55697         6.32473        -2.52790
C         20.72127         8.47366        -2.40574
C         19.45876         9.17895        -1.98705
C         20.81672        11.14830        -1.11743
C         19.63298        10.42041        -1.12864
C         20.88733        12.40025        -0.48513
C         19.75084        12.99364         0.07053
C         20.97768        15.18306         0.63511
C         19.83382        14.28106         0.79912
C         20.94453        16.45343         1.10820
C         19.73752        17.08101         1.61159
C         20.94994        19.19539         2.08588
C         19.75947        18.44246         2.02578
C         20.92963        20.57486         2.18887
C         19.70306        21.30817         2.09146
C         20.92120        23.46435         1.74042
C         19.70398        22.71669         1.83228
C         20.93170        24.77874         1.36073
C         19.72704        25.46286         0.98558
C         20.95775        27.50026         0.27811
C         19.74346        26.75128         0.42074
C         21.00866        28.76752        -0.21529
C         19.78554        29.49614        -0.61440
C         20.94392        31.70898        -0.51224
C         19.75472        30.97891        -0.57287
C         20.93609        33.10105        -0.65698
C         19.74674        33.79347        -0.85803
C         20.81468        36.04621        -0.35151
C         19.81066        35.27171        -1.16347
C         20.72884        37.41778        -0.29342
C         19.60922        38.10846        -0.80326
O          5.03075        26.37361        -0.38339
O         16.00746        24.49765         2.91731
O         19.33902        14.18079         2.16359
O         15.97190        19.87407         3.62582
O          9.45503         5.81474         1.00653
O         15.61253         7.93538         0.99664
O          5.39346        29.98421         2.18447
O         11.46732        28.91611        -1.37816
O         11.92340        17.25476         3.01917
O         19.15780        29.00038        -1.87036
O          5.92694        20.55736         3.19280
H          6.69069        20.04010         3.52907
O         10.04683        27.36338         2.78380
H          9.25481        27.03225         3.25998
O          2.17415        25.74454         2.72948
H          1.49939        26.43453         2.91244
O         18.47663        26.54987        -1.56444
H         18.94925        27.14967        -2.19113
O          2.65392         9.92040         1.34573
H          1.90762         9.41295         1.73013
O          7.62005         5.21371        -2.65093
H          7.58742         4.55618        -3.37697
O          5.00331        12.10616         1.95533
H          4.26111        11.47453         2.09432
O          5.05898         8.67981        -2.41804
H          4.35472         9.32589        -2.67621
O         13.42997        19.17991         3.95650
H         13.07930        18.31186         4.26195
O         18.56439        19.04518         3.99541
H         17.70442        19.40413         4.32468
O          0.56468        20.73928         2.79412
H          0.46768        21.71093         2.97410
O          5.88970        12.62480        -1.57257
H          6.68308        12.38044        -2.09520
O          7.34130        22.57789        -0.57192
H          7.28731        23.48987        -0.93235
O          1.49243        16.90910        -1.19557
H          0.80652        16.54589        -1.79309
O          7.07769         4.91716         0.96225
H          7.92336         4.87564         1.47080
O          0.93906        36.61385         0.53607
H          0.88177        35.76003         1.01547
O         11.27771        16.90143        -0.54304
H         10.55068        16.54875        -1.09837
O         13.43710        37.01149        -3.73863
H         13.98837        36.22202        -3.96269
O         14.76895        34.78917        -3.29619
H         15.57773        34.27965        -3.51676
O          6.14342        14.59114         2.62724
H          5.87638        13.65073         2.76899
O         20.28795        35.34801        -2.57089
H         20.38252        36.30152        -2.78417
O          6.24689        33.87687         1.57151
H          5.52858        33.39839         2.03880
O         18.86283         9.71169        -3.24564
H         18.83017         8.96724        -3.88438
O          1.95896        16.53480         2.40514
H          2.62287        16.88923         3.03297
O          4.92529        18.70541        -0.74197
H          5.76645        18.30260        -1.04579
O          3.49672        10.93229        -2.07668
H          4.16142        11.61662        -2.32985
O          0.54322        23.48776         2.62826
H          1.15775        24.12191         3.07719
O         18.14971         8.40811         0.87530
H         17.43205         8.29764         1.54414
O          5.98494        27.61855         2.90122
H          5.60970        28.46804         3.23809
O         13.86851        36.35722        -0.09884
H         13.10622        36.89841         0.19799
H          1.35909         2.41877        -1.37281
H         -0.82024         3.60173        -1.14189
H         -0.90875         6.03853        -0.79495
H         -0.92252         7.97611        -0.68134
H         -0.95931        10.40014        -0.61655
H         -0.92274        12.38255        -0.79668
H         -0.88250        14.80519        -0.50991
H         -1.03951        16.52313         0.50525
H         -1.04860        18.83043         1.33480
H         -0.74897        20.68750        -0.02079
H         -0.77582        23.13944        -0.17460
H         -0.99562        25.07174         0.21885
H         -0.97360        27.48833        -0.06829
H         -0.97349        29.38199        -0.25089
H         -0.92632        31.76169        -0.69646
H         -0.81626        33.53579        -1.45582
H         -0.83262        35.95993        -1.72027
H          0.41269        38.14134        -1.85303
H          3.82012         2.49667        -1.47792
H          2.59179        39.22888        -2.20541
H          6.29276         2.59883        -1.66068
H          5.03597        39.26815        -1.83077
H          8.78726         2.64894        -1.66837
H          7.49034        39.24924        -1.70943
H         11.25395         2.60606        -1.47649
H          9.94738        39.20245        -1.75596
H         13.66732         2.72079        -1.73704
H         12.33200        39.13033        -2.12212
H         16.05902         2.89537        -2.31135
H         14.88071        39.08640        -2.22026
H         18.41266         3.13257        -3.06769
H         17.20785        39.14654        -1.49579
H         20.42081         4.54787        -3.42252
H         21.63723         6.67891        -3.10424
H         21.62590         9.06891        -2.59412
H         21.72329        10.75614        -1.59735
H         21.85530        12.91827        -0.44983
H         21.88016        14.82025         0.12331
H         21.84919        17.06718         1.00480
H         21.92601        18.69920         1.99458
H         21.88754        21.10898         2.21940
H         21.87928        22.97847         1.96634
H         21.89888        25.29285         1.28752
H         21.90307        27.04310         0.60315
H         21.98316        29.26686        -0.30048
H         21.90802        31.19738        -0.39637
H         21.89430        33.63768        -0.65804
H         21.69475        35.53554         0.06305
H         21.53784        37.99395         0.17987
H         19.57507        39.20595        -0.77151
