         651
 CSIRO Nanostructure Databank - Neutral Graphene Oxide Data Set
C          5.69415        31.82949         1.22795
C          5.74387        33.18675         1.12284
C          8.38374        27.78043         0.07008
C          8.36288        29.25999         0.30615
C          7.02337        29.81797         0.71103
C          8.10305        31.80974         1.85639
C          6.92976        31.05460         1.25426
C          8.28706        33.12832         1.09958
C          6.99085        33.92270         1.07201
C          8.25462        36.03708         0.94060
C          7.01876        35.28295         0.91475
C          8.35863        37.32215         0.48211
C         10.82054        23.44855        -0.61620
C         10.71895        24.76645         0.14960
C          9.59704        25.67883        -0.27987
C         10.85789        27.75514         0.32939
C          9.57353        27.04257         0.04261
C         10.84568        29.11145         0.94527
C          9.49378        29.67320         1.25635
C         10.68433        31.77122         2.03280
C          9.41737        31.04367         1.88174
C         10.72326        33.17626         1.91509
C          9.43004        33.90468         1.73072
C         10.72171        36.13809         1.65090
C          9.42181        35.39525         1.59695
C         10.82608        37.40157         0.90757
C          9.62351        38.02941         0.44357
C         10.93675        39.99058        -0.19238
C          9.68974        39.32338        -0.06367
C         10.97977        41.34465        -0.60155
C         13.26168        19.11002        -0.28517
C         13.17217        20.49531        -0.00409
C         12.04617        21.16651        -0.52183
C         13.31440        23.34360         0.96264
C         11.57815        22.44856        -0.06695
C         13.34223        24.74347         0.49996
C         12.07111        25.49927         0.17733
C         13.28395        27.48690         1.28867
C         12.12302        26.96866         0.39267
C         13.26109        28.98849         1.58085
C         12.04865        29.64038         1.64463
C         13.19824        31.71802         2.59602
C         11.92443        30.98611         2.25453
C         13.16202        33.21421         2.50087
C         11.93418        33.88349         2.02837
C         13.28350        35.97587         1.48917
C         12.00903        35.35895         1.92216
C         13.30731        37.22233         0.91530
C         12.08643        37.97310         0.65659
C         13.40638        39.91030        -0.19214
C         12.15029        39.27821         0.07462
C         13.41259        41.26490        -0.55587
C         12.20150        42.01233        -0.73366
C         13.44249        44.10649        -1.20452
C         12.25431        43.39188        -1.14431
C         13.51523        45.46362        -1.59543
C         15.64181        14.80370        -0.73142
C         15.64440        16.21329        -0.40709
C         14.42548        16.94382        -0.23019
C         15.64809        19.04867         0.30057
C         14.40996        18.33165        -0.00977
C         15.63821        20.37328         0.61869
C         14.29384        21.05376         0.92635
C         15.69187        23.26365         1.25280
C         14.42509        22.57098         0.91160
C         15.79177        24.72818         1.21852
C         14.65186        25.47754         0.64425
C         15.83162        27.57338         1.43881
C         14.66956        27.00530         0.65699
C         15.73008        28.91272         1.91734
C         14.50394        29.61709         2.00542
C         15.68191        31.71774         2.56625
C         14.50166        31.01914         2.37839
C         15.74456        33.20940         2.86171
C         14.46487        33.96005         2.46312
C         15.81995        35.88148         1.50756
C         14.52067        35.09728         1.43753
C         15.83955        37.12687         0.91442
C         14.59518        37.67524         0.24894
C         15.86523        39.79772        -0.19231
C         14.65485        39.17057        -0.03190
C         15.97082        41.19809        -0.67007
C         14.67144        41.95472        -0.87664
C         15.98346        44.07830        -1.15295
C         14.69724        43.45288        -0.67378
C         16.00400        45.41738        -1.56297
C         14.74210        46.13888        -1.72536
C         15.98620        48.21189        -2.20685
C         14.78026        47.51784        -2.01472
C         15.98351        49.61702        -2.33394
C         18.11960        10.58880        -1.61978
C         18.06258        11.96792        -1.34499
C         16.85730        12.68842        -1.22929
C         18.05578        14.87806        -1.24689
C         16.80801        14.10040        -1.01619
C         18.07119        16.34091        -0.90399
C         16.85089        16.92685        -0.35290
C         18.19876        19.00414         0.31560
C         16.90675        18.21803         0.41946
C         18.21226        20.36486         0.67254
C         16.93595        21.16959         0.51182
C         18.22039        23.24916         1.33057
C         16.96874        22.48176         1.26884
C         18.23003        24.61887         1.56724
C         16.99270        25.37902         1.46648
C         18.24955        27.48661         1.98301
C         17.00779        26.82879         1.61534
C         18.25323        28.84191         2.32690
C         16.94469        29.50156         2.51115
C         18.20751        31.74499         3.12837
C         16.91624        30.97946         2.84967
C         18.19768        33.12391         2.47895
C         17.02916        33.82134         2.31475
C         18.27831        35.91072         1.86174
C         17.04299        35.20021         1.86371
C         18.18809        37.41010         1.59315
C         17.18501        37.63377         0.44586
C         18.40581        39.89080         0.09421
C         17.15497        39.08493        -0.03510
C         18.37000        41.42152         0.21283
C         17.17923        42.00666        -0.49156
C         18.43791        44.02573        -1.20621
C         17.19935        43.35747        -0.93422
C         18.45439        45.34804        -1.67125
C         17.24311        46.07826        -1.82375
C         18.43275        48.16664        -2.45498
C         17.25831        47.48499        -2.19115
C         18.36647        49.56478        -3.05538
C         17.15711        50.34698        -2.59357
C         18.34049        52.51775        -2.79188
C         17.15957        51.74222        -2.60998
C         18.28815        53.91677        -2.84407
C         20.57006         6.37889        -2.47157
C         20.55194         7.72879        -2.13888
C         19.34984         8.48242        -1.98510
C         20.61419        10.59794        -1.68081
C         19.34134         9.86475        -1.74377
C         20.60054        11.96599        -1.41539
C         19.34847        12.66706        -0.96494
C         20.62071        14.87299        -1.06779
C         19.35417        14.14071        -1.32888
C         20.61676        16.19810        -0.66486
C         19.40009        17.01456        -0.58656
C         20.63937        18.97968         0.39627
C         19.41980        18.32680         0.12041
C         20.65645        20.31522         0.86653
C         19.43606        21.02534         0.93333
C         20.74239        23.19445         1.51949
C         19.44822        22.44145         1.39980
C         20.71606        24.67109         1.55839
C         19.48770        25.34943         1.70496
C         20.72719        27.44329         2.14305
C         19.49414        26.75809         1.92957
C         20.72773        28.86784         2.43085
C         19.48288        29.56634         2.54083
C         20.69691        31.67989         2.90699
C         19.48687        30.97153         2.79772
C         20.59551        33.19825         3.11838
C         19.53681        33.74565         2.13824
C         20.72650        35.97990         2.26530
C         19.49263        35.26062         2.12884
C         20.70418        37.42836         1.97254
C         19.53229        38.03112         1.28865
C         20.92374        39.83786         0.18417
C         19.61935        39.22332         0.65197
C         20.88434        41.36204         0.15076
C         19.64187        41.99310        -0.33552
C         21.02969        44.01211        -1.15352
C         19.68719        43.25415        -1.04893
C         21.01238        45.45478        -1.47568
C         19.74463        45.99671        -2.01503
C         20.97968        48.21735        -2.21346
C         19.73347        47.45517        -2.43377
C         20.96345        49.65370        -2.57706
C         19.67792        50.34592        -2.93573
C         20.79333        52.55384        -2.83853
C         19.62783        51.83491        -2.82499
C         20.75621        54.01000        -3.08609
C         19.45838        54.71480        -2.98800
C         20.61806        56.91305        -2.99563
C         19.42951        56.10401        -3.07094
C         20.56086        58.31774        -3.00291
C         22.92107         3.64264        -3.51945
C         21.75039         4.29922        -3.15551
C         23.02940         6.34753        -2.86096
C         21.77999         5.67024        -2.80602
C         23.10714         7.75184        -2.42157
C         21.83619         8.44508        -2.00749
C         23.10430        10.57952        -1.99445
C         21.83895         9.90896        -1.92899
C         23.15936        11.98272        -1.53722
C         21.86368        12.70148        -1.24839
C         23.06915        14.90188        -1.32155
C         21.85786        14.17300        -1.21098
C         23.09563        16.25326        -0.96110
C         21.89975        16.81457        -0.29861
C         23.16536        18.97726         0.08385
C         21.90678        18.22498         0.22777
C         23.21676        20.34250         0.64835
C         21.95870        21.00802         1.13037
C         23.17900        23.18912         1.18752
C         22.00915        22.50227         1.21063
C         23.22073        24.69538         1.12607
C         21.94129        25.37400         1.59541
C         23.24428        27.37971         2.27568
C         21.94807        26.72266         1.97903
C         23.24164        28.85862         2.58108
C         21.94462        29.59239         2.59475
C         23.23918        31.68928         3.04128
C         21.93445        30.98500         2.81661
C         23.24544        33.19185         3.15035
C         21.94066        33.94142         3.05260
C         23.18588        36.11399         2.64601
C         21.93987        35.37086         2.63213
C         23.23851        37.44217         2.25296
C         22.00375        38.16101         1.89430
C         23.41487        40.09557         1.00421
C         22.15585        39.29453         0.92329
C         23.44963        41.47653         0.47767
C         22.16629        42.12354         0.11836
C         23.41635        44.15501        -0.55877
C         22.24339        43.47211        -0.49231
C         23.51460        45.49318        -1.26535
C         22.17472        46.19145        -1.46435
C         23.39718        48.40270        -1.72848
C         22.15387        47.61376        -1.79526
C         23.41817        49.73930        -2.03431
C         22.11008        50.51186        -2.07579
C         23.37129        52.69748        -2.66838
C         22.11565        51.87343        -2.77020
C         23.28904        54.17760        -2.52655
C         22.02647        54.83268        -2.95179
C         22.99213        57.03799        -2.36761
C         21.88203        56.28317        -2.74054
C         22.95094        58.45020        -2.44742
C         21.72455        59.09891        -2.79609
C         22.87965        61.24603        -2.68123
C         21.71527        60.52161        -2.88470
C         24.14619         4.32311        -3.55540
C         25.56662         6.38364        -3.25487
C         24.21352         5.68608        -3.23061
C         25.56020         7.84692        -2.84688
C         24.24102         8.57719        -3.00011
C         25.54740        10.73177        -2.68436
C         24.26645         9.97213        -2.43831
C         25.55904        12.13751        -2.15073
C         24.37228        12.76395        -1.83976
C         25.62201        14.98314        -1.84718
C         24.29728        14.22810        -1.81142
C         25.64395        16.41904        -1.44478
C         24.28445        17.08322        -1.07578
C         25.59950        19.04754        -0.16447
C         24.29447        18.38356        -0.38673
C         25.60023        20.53976        -0.20166
C         24.30255        21.26884         0.12172
C         25.72873        23.24727         0.88297
C         24.48914        22.41022         1.17231
C         25.73504        24.60319         1.24664
C         24.48123        25.22932         1.82875
C         25.65219        27.47444         1.63177
C         24.50180        26.74156         1.82104
C         25.61529        28.92717         1.82848
C         24.49651        29.58353         2.27777
C         25.75729        31.81286         2.35616
C         24.53742        31.01450         2.66962
C         25.79107        33.21321         2.52834
C         24.56434        33.92695         2.99181
C         25.71803        36.13214         2.38266
C         24.49334        35.42204         2.88629
C         25.79962        37.59132         2.62818
C         24.45217        38.28395         2.41062
C         25.73862        40.30813         1.81478
C         24.53527        39.62916         1.85056
C         25.72343        41.72351         1.36996
C         24.57852        42.22018         0.57547
C         25.87959        44.39367         0.15177
C         24.73692        43.47218        -0.25255
C         25.86509        45.71572        -0.26425
C         24.53241        46.40318        -0.55048
C         25.88080        48.53597        -1.02602
C         24.66240        47.71491        -1.32131
C         25.84394        49.98800        -1.24721
C         24.67888        50.52238        -1.98232
C         25.65144        52.80652        -1.45603
C         24.62907        52.00983        -2.19378
C         25.52870        54.29449        -1.43452
C         24.30228        54.91390        -1.99846
C         25.47172        57.14323        -1.85310
C         24.16829        56.38293        -1.69070
C         25.40298        58.52043        -2.04672
C         24.15999        59.20787        -2.26700
C         24.09844        60.60487        -2.39302
C         26.70702         8.49601        -2.50660
C         27.95295        10.59868        -2.05226
C         26.78599         9.93812        -2.33308
C         28.03548        12.04789        -1.92831
C         26.82558        12.81958        -2.00732
C         28.07780        14.85268        -1.39070
C         26.86375        14.20159        -1.72894
C         28.09337        16.24857        -1.01423
C         26.88895        16.96999        -0.93232
C         28.16736        19.07667        -0.37556
C         26.89156        18.32858        -0.37255
C         28.17198        20.45883        -0.12592
C         26.90582        21.23093        -0.06875
C         28.14544        23.30256         0.45780
C         26.91526        22.61786         0.44197
C         28.14385        24.69591         0.76103
C         26.92267        25.35986         1.10225
C         28.09494        27.50161         1.09214
C         26.91138        26.79411         1.28215
C         28.06192        28.98208         1.10740
C         26.82208        29.71913         1.48958
C         28.13046        31.85149         1.78023
C         26.91687        31.14556         1.90996
C         28.19782        33.24198         2.00468
C         26.99403        33.92228         2.29811
C         28.26278        36.15231         2.33506
C         27.00085        35.39866         2.19596
C         28.28478        37.54380         2.35129
C         27.04835        38.30299         2.35095
C         28.23552        40.44792         2.05096
C         27.00256        39.68576         2.13698
C         28.24314        41.78927         1.72572
C         26.99473        42.49810         1.37427
C         28.21922        44.61253         1.00762
C         27.06251        43.81426         0.71015
C         28.21944        45.96140         0.66627
C         27.16858        46.49885        -0.27623
C         28.18441        48.80147        -0.06360
C         26.89635        48.00500        -0.02894
C         28.20555        50.13365        -0.53838
C         26.98008        50.75607        -1.03300
C         28.09459        52.98878        -1.06988
C         26.96777        52.17860        -1.23912
C         27.99755        54.39879        -1.18305
C         26.77879        55.08235        -1.39046
C         26.70217        56.46705        -1.64416
C         29.24072        12.70623        -1.66243
C         30.51490        14.79935        -1.13276
C         29.29478        14.10794        -1.40357
C         30.54745        16.16386        -0.84010
C         29.34044        16.90819        -0.74795
C         30.60608        19.04662        -0.45997
C         29.37160        18.33637        -0.50179
C         30.59010        20.45786        -0.34988
C         29.39121        21.17955        -0.12137
C         30.57982        23.32767         0.18236
C         29.38325        22.61490         0.14380
C         30.59949        24.74230         0.44017
C         29.36781        25.42427         0.68656
C         30.55489        27.55527         0.58219
C         29.34806        26.84088         0.81458
C         30.53657        29.02603         0.59189
C         29.37088        29.68098         1.25571
C         30.59117        31.94962         1.01233
C         29.40455        31.14045         1.52893
C         30.66420        33.33757         1.61723
C         29.48308        33.95322         1.97848
C         30.82726        36.13593         2.36557
C         29.50495        35.36785         2.42419
C         30.74634        37.61678         2.30662
C         29.54387        38.27434         2.34985
C         30.74470        40.51597         2.11834
C         29.49794        39.77880         2.56260
C         30.69973        41.89159         1.97185
C         29.45286        42.59154         1.78624
C         30.62463        44.78779         1.77278
C         29.39657        43.97246         1.58767
C         30.57674        46.27589         1.56766
C         29.23377        46.93172         1.23097
C         30.58338        48.89682         0.31798
C         29.35359        48.20843         0.42636
C         30.59243        50.22771        -0.14286
C         29.40739        50.87670        -0.50778
C         29.45528        52.34653        -0.88395
C         31.87739        16.82726        -0.52571
C         33.06957        19.03157        -0.55958
C         31.87114        18.34603        -0.55967
C         33.14129        20.46763        -0.50118
C         31.84951        21.19083        -0.52651
C         33.12923        23.28853         0.13484
C         31.83230        22.66773        -0.23807
C         33.11005        24.76894         0.38377
C         31.81054        25.47600         0.37270
C         33.04152        27.63564         0.26057
C         31.78613        26.88856         0.38010
C         33.06293        29.01076         0.37951
C         31.82296        29.78554         0.52066
C         33.09621        31.95736         0.74647
C         31.90200        31.15046         1.20149
C         33.08754        33.38629         0.97786
C         31.93047        34.04990         1.49047
C         33.20206        36.15883         1.56923
C         32.01324        35.43595         1.81266
C         33.29212        37.59665         1.91357
C         32.02747        38.36284         2.29785
C         33.17349        40.47257         1.65776
C         32.00912        39.81692         2.04841
C         33.08299        41.92517         1.24013
C         32.00760        42.64530         2.03493
C         33.11675        44.79109         1.49505
C         31.92795        44.10417         1.66501
C         33.15741        46.30476         1.54479
C         31.83910        46.97145         1.20473
C         31.82031        48.21507         0.66312
C         34.32934        21.18566        -0.48805
C         35.54363        23.36217        -0.35475
C         34.38206        22.61266        -0.28924
C         35.57199        24.79942        -0.20420
C         34.34184        25.52300         0.09694
C         35.48549        27.64546        -0.36854
C         34.28264        26.89670         0.04736
C         35.48101        29.14136        -0.24288
C         34.34396        29.78548         0.52409
C         35.41589        32.04526        -0.05108
C         34.20810        31.28566         0.30061
C         35.48752        33.45232         0.34376
C         34.31443        34.10878         0.79712
C         35.56819        36.25418         0.80622
C         34.35478        35.51613         1.05754
C         35.58957        37.67462         0.94685
C         34.43966        38.36885         1.40237
C         35.59079        40.52607         1.04698
C         34.39751        39.77702         1.39183
C         35.57870        41.95613         1.10316
C         34.39636        42.67667         1.29170
C         34.34990        44.07860         1.37604
C         36.75691        25.51239        -0.38773
C         37.96437        27.68007        -0.48747
C         36.79174        26.94691        -0.41102
C         37.99488        29.13384        -0.45386
C         36.76906        29.83503        -0.22624
C         38.03175        31.98093         0.00981
C         36.72900        31.28344        -0.26984
C         37.94258        33.48382        -0.07318
C         36.72808        34.15715         0.20853
C         37.96472        36.30561         0.17580
C         36.74370        35.57776         0.39188
C         37.95681        37.71416         0.28048
C         36.78515        38.41282         0.63442
C         36.76154        39.83144         0.72076
C         39.16135        29.86243        -0.71381
C         40.41303        32.11659        -0.67978
C         39.11603        31.37093        -0.90246
C         40.39946        33.43852        -0.41385
C         39.15849        34.19678        -0.21284
C         39.15761        35.59267        -0.12758
O         15.36905        41.43537        -2.02102
O         20.62401        49.90319        -3.97747
O         23.35003        27.87330         3.66238
O         12.40377        31.10667         3.65206
O         21.13164        38.34940         3.05838
O         18.02815        39.35055        -1.20040
O         26.02648        42.61337         2.52172
O         19.85869        46.37890        -3.42997
O         25.04246        38.10655         3.74400
O         21.32130        42.05931         1.38590
O         22.90672        20.36907         2.06008
O         13.62892        34.08810         3.63563
O         25.16856        51.16034        -3.23793
O          9.05841        34.73795         2.85706
O         21.54108        54.40940        -4.26530
O         11.32475        36.12726         2.97352
O         18.73494        17.17818        -1.90938
O         22.71470        12.14737        -0.14459
O         26.20691        21.09783        -1.40977
O         29.67629        30.16359         2.60242
O         26.14439        35.81563         1.02556
O         20.10776        22.59401         2.71016
O         33.18894        23.79393         1.50225
O         14.28772        24.87316        -0.63886
O         24.09260        31.12071         4.08109
O         12.36004        26.39953        -0.93881
O         30.31496        35.58695         3.62497
O         16.20754        22.60754         2.49561
O         22.81336         7.89943        -1.00838
O         31.79496        22.19545        -1.62040
O         35.17664        28.51991        -1.52894
O         30.95082        29.67541        -0.66671
O         32.96920        37.90415         3.31552
O         22.93704        52.10187        -3.93397
O         24.91206        17.24656        -2.39967
O         22.59387        33.69277         4.34905
O         27.21127        29.56433         0.06011
O         13.16665        26.85278         2.50345
O         18.66906        14.53036        -2.54509
O         25.74177        47.77479        -2.29568
O         35.96724        31.79970        -1.41480
O         12.09072        22.72701         1.22627
O         20.55488        43.20685        -2.26410
O         24.77917        34.79209         4.16214
O         23.21551        39.03712        -0.04348
O         16.71215        29.96050         3.89491
O         14.48599        34.53286         0.12966
O         24.85632        14.76780        -3.06714
O         25.18592        53.49034        -0.23942
O         26.26022        18.43597         0.99621
O          9.26364        29.79551         2.67058
O         30.57673        45.74030         2.94354
O         22.04443        17.08837         1.16074
O         24.72487        21.83376         2.41644
O         11.05200        28.95781        -0.51453
O          7.77017        32.12979         3.21766
H          7.90288        31.32099         3.75652
O         25.61324        10.89515        -4.16529
H         25.24345        11.77753        -4.38686
O         23.95432        46.73292         0.73724
H         24.64583        47.23512         1.24308
O         32.14030        30.86121         2.60606
H         31.92482        31.65923         3.13432
O          8.64932        29.96647        -0.95539
H          9.53241        29.63642        -1.26705
O         23.85745        56.44686        -0.25571
H         23.85493        57.39280         0.00284
O         13.94133        20.62347         2.26514
H         13.19610        21.18848         2.56415
O         27.78597        46.33731        -1.59087
H         27.12915        46.65037        -2.26241
O         24.05829        45.25010        -2.59459
H         23.33976        44.90352        -3.16631
O         30.38433        32.21069        -0.39210
H         30.42484        31.34860        -0.87898
O         18.22792        31.94210         4.56145
H         17.66428        31.24192         4.96166
O         17.64469        38.06926         2.75748
H         18.29835        38.00532         3.48576
O         14.65255        36.97063        -1.03762
H         14.56192        35.98496        -0.80341
O         18.25061        41.74123         1.64566
H         19.15151        41.91756         1.99744
O         38.77526        31.56589        -2.29761
H         37.83233        31.31902        -2.42580
O         32.65865        41.92702        -0.15401
H         33.37123        41.51482        -0.68601
O         24.35683        24.83099         3.21023
H         25.14238        25.13725         3.70767
O         16.89311        17.76542         1.82639
H         16.64570        18.53144         2.38931
O         21.82528        50.84680        -0.67948
H         21.90082        50.03288        -0.13735
O         15.89107        33.30790         4.29592
H         14.98672        33.41263         4.67764
O         32.42830        42.61886         3.43016
H         31.82690        43.19956         3.94191
O         17.59469        36.79160        -0.65117
H         16.87525        36.82820        -1.32262
O         32.91308        16.30741        -1.36575
H         32.71300        16.55658        -2.29111
O         23.96635         8.68476        -4.43012
H         24.59346         9.36826        -4.77484
O          8.70122        32.82558        -0.25270
H          8.31522        31.96478        -0.54718
O         23.79197        21.84096        -1.09390
H         24.56156        21.93173        -1.70898
O         19.94628        33.32824         0.80351
H         19.29530        33.67981         0.15895
O         14.78013        27.51049        -0.66702
H         14.18984        26.95659        -1.23735
O         16.96450        21.61069        -0.89210
H         16.98826        20.81498        -1.46557
O         38.36810        31.65084         1.38414
H         39.22343        32.08114         1.59654
O         21.03424        39.48987        -1.21216
H         20.98047        38.51734        -1.31124
O         26.50777         5.64290        -2.46799
H         26.17202         5.59958        -1.54922
O         18.14131        49.34852        -4.47613
H         19.01966        49.14631        -4.87465
O         23.37888        25.05065        -0.28080
H         22.80595        24.46375        -0.81793
O         26.28514        48.13851         1.28475
H         26.99130        47.93584         1.95604
O         10.39859        24.51289         1.54694
H          9.66691        23.86321         1.58635
O         20.08327        33.51228         4.41610
H         20.78120        33.30485         5.07594
O         19.40413        12.67288         0.50076
H         19.63332        11.76885         0.80410
O         34.73409        29.68165         1.93238
H         33.97119        30.00756         2.47062
O         30.21956        52.50981        -2.09579
H         29.75344        52.03719        -2.81605
O         28.63821        47.36920         2.50789
H         29.01618        46.76990         3.19963
O         25.18649        42.95705        -1.55496
H         25.13154        43.71115        -2.19360
O         34.21125        46.81825         0.72905
H         34.03650        46.56472        -0.20014
O         14.66949        43.63083         0.78019
H         14.59081        44.58995         0.96683
O         29.45499        39.92671         4.02026
H         29.35360        40.87987         4.22607
H          4.73037        31.30085         1.18402
H          4.80826        33.76232         1.05117
H          7.42565        27.24871        -0.03347
H          6.12618        29.34184         0.28441
H          6.07714        35.83546         0.76755
H          7.47936        37.82060         0.04750
H         10.41140        23.36960        -1.63263
H          8.64509        25.20442        -0.56918
H          8.76759        39.84454        -0.35884
H         10.03827        41.87991        -0.79350
H         12.39963        18.61399        -0.75910
H         11.44316        20.62552        -1.27022
H         11.31346        43.88344        -1.43598
H         12.58404        46.00747        -1.81662
H         14.68748        14.26053        -0.65887
H         13.47472        16.42938        -0.43615
H         13.83218        48.07249        -2.08006
H         15.03855        50.16017        -2.17881
H         17.17692        10.04090        -1.77607
H         15.90461        12.13871        -1.29056
H         16.21091        52.27326        -2.43543
H         17.30919        54.41604        -2.78634
H         19.61654         5.83374        -2.54625
H         18.38769         7.95420        -2.07058
H         18.45595        56.61701        -3.09554
H         19.60031        58.82123        -3.18782
H         22.88843         2.57519        -3.77886
H         20.79596         3.75422        -3.12797
H         22.85863        62.34187        -2.76350
H         20.77732        61.03932        -3.13158
H         25.06658         3.78517        -3.82216
H         25.94692         6.34085        -4.31429
H         26.33285        59.11050        -2.05569
H         25.01313        61.20222        -2.26932
H         27.63910         7.91520        -2.41302
H         28.87342        10.01916        -1.87908
H         28.92498        54.98874        -1.12712
H         27.63419        57.05337        -1.67410
H         30.17390        12.12456        -1.61916
H         31.46351        14.24330        -1.16850
H         31.54433        50.77708        -0.18082
H         30.01887        52.90060        -0.08785
H         32.15321        16.52489         0.52582
H         34.00810        18.45784        -0.59834
H         33.41482        46.58621         2.60516
H         32.77403        48.71836         0.44294
H         35.28228        20.64447        -0.59465
H         36.48893        22.86168        -0.61554
H         36.53461        42.49360         1.00522
H         35.28312        44.65855         1.31606
H         37.69652        24.96134        -0.54580
H         38.92475        27.14774        -0.56080
H         38.88179        38.27564         0.08262
H         37.67961        40.39472         0.49669
H         40.04972        29.32524        -1.08208
H         41.36574        31.59182        -0.84798
H         41.34676        33.99461        -0.33910
H         40.09551        36.15080        -0.26412
