         640
 CSIRO Nanostructure Databank - Neutral Graphene Oxide Data Set
C         23.09006        27.64647        -1.11844
C         23.13735        28.87542        -1.67087
C         23.37344        31.73964        -2.39865
C         23.31862        33.13278        -2.16629
C         23.21159        36.01371        -1.58259
C         23.17658        37.36585        -1.29362
C         23.05356        40.19262        -0.50582
C         23.01709        41.56314        -0.29207
C         22.97726        44.46598         0.19117
C         22.95824        45.84836         0.28761
C         25.37986        24.87913         0.00867
C         24.22728        25.59940        -0.30558
C         25.57174        27.49831        -1.07389
C         24.29700        26.89057        -0.84781
C         25.66161        28.82655        -1.58070
C         24.42974        29.48056        -2.16589
C         25.64086        31.60691        -1.33512
C         24.45235        30.98177        -2.01258
C         25.63909        33.11338        -1.41828
C         24.43366        33.82656        -1.65183
C         25.56175        35.93162        -0.94747
C         24.39474        35.26066        -1.41196
C         25.50731        37.31455        -0.62310
C         24.31495        38.04116        -0.78608
C         25.46417        40.18082        -0.18214
C         24.26436        39.47258        -0.47418
C         25.41909        41.58242         0.02389
C         24.20077        42.29365        -0.02715
C         25.42812        44.46062         0.26330
C         24.18837        43.74098         0.16147
C         25.41118        45.89423         0.34872
C         24.16749        46.58779         0.35603
C         25.34772        48.71256         0.51887
C         24.16510        48.00752         0.44137
C         27.87153        23.34897         0.55756
C         27.87865        24.69532         0.11422
C         26.66026        25.43969        -0.17435
C         28.01429        27.36985        -0.92945
C         26.74707        26.76954        -0.69519
C         28.09666        28.66456        -1.54115
C         26.90940        29.49757        -1.70427
C         28.12499        31.75334        -1.74029
C         26.95037        30.93673        -1.73791
C         28.09539        33.12631        -1.29121
C         26.84009        33.81797        -1.15492
C         28.03128        35.93528        -0.66118
C         26.80969        35.21528        -0.88474
C         28.01397        37.32028        -0.38078
C         26.70928        37.96797         0.01390
C         27.93403        40.15429        -0.14500
C         26.72763        39.46751        -0.13179
C         27.89771        41.63337        -0.20228
C         26.68849        42.28468         0.43050
C         27.89872        44.49938         0.30341
C         26.66777        43.78023         0.25781
C         27.87864        45.92408         0.45824
C         26.62998        46.62680         0.45694
C         27.85030        48.78505         0.63001
C         26.60508        48.05076         0.53329
C         27.88260        50.20170         0.66420
C         30.31949        23.23213         0.55257
C         29.04630        22.64000         0.75301
C         30.35510        24.60129         0.16464
C         29.14003        25.31582        -0.08345
C         30.46196        27.26326        -0.80177
C         29.20328        26.65145        -0.60475
C         30.55299        28.47316        -1.54312
C         29.35376        29.06799        -2.00560
C         30.61877        31.90594        -1.89107
C         29.40076        31.27813        -2.18460
C         30.57599        33.22287        -1.31951
C         29.30536        33.85741        -1.12599
C         30.49705        35.97222        -0.66847
C         29.27948        35.24871        -0.80064
C         30.47411        37.38159        -0.46369
C         29.22435        38.06195        -0.33426
C         30.43266        40.23467        -0.22511
C         29.20392        39.49127        -0.21347
C         30.45092        41.66459        -0.14336
C         29.18467        42.40287        -0.19416
C         30.36913        44.53238         0.29695
C         29.15374        43.82619         0.19155
C         30.32454        45.93333         0.51354
C         29.10058        46.63564         0.59240
C         30.29498        48.81047         0.88043
C         29.08657        48.08522         0.70939
C         30.31120        50.21514         0.89497
C         29.07334        50.89517         0.76575
C         32.74717        20.39240         1.14283
C         31.57636        21.10177         1.03532
C         32.80368        23.13949         0.50487
C         31.56257        22.49361         0.70295
C         32.83109        24.54687         0.19125
C         31.61932        25.26251         0.01431
C         32.90830        27.32388        -0.48059
C         31.67491        26.61933        -0.41762
C         32.98240        28.67400        -1.03292
C         31.83038        29.06245        -1.74194
C         33.05451        31.71426        -1.39692
C         31.90227        31.24582        -2.01746
C         33.10494        33.22500        -1.40990
C         31.78317        33.91244        -1.09974
C         32.96936        36.03823        -0.66426
C         31.75288        35.29172        -0.79638
C         32.95568        37.41855        -0.45975
C         31.69663        38.12611        -0.40429
C         32.94443        40.31411        -0.49599
C         31.66997        39.52938        -0.29223
C         32.91059        41.72123         0.03893
C         31.66419        42.39707         0.05185
C         32.86646        44.50850         0.38838
C         31.64557        43.82485         0.23371
C         32.88404        45.97981         0.43647
C         31.57758        46.70695         0.50707
C         32.84181        48.80387         1.04355
C         31.54989        48.04372         1.20305
C         32.82848        50.22702         1.03847
C         31.58580        50.94041         0.97717
C         32.83058        53.03950         0.89195
C         31.61515        52.33705         0.93573
C         35.27388        18.83585         1.12335
C         35.24610        20.28392         1.02783
C         34.02373        21.01076         0.94988
C         35.28631        23.06604         0.46352
C         34.04428        22.41331         0.64785
C         35.32055        24.44858        -0.13246
C         34.06152        25.24487         0.07539
C         35.32588        27.43392         0.12716
C         34.08755        26.62681        -0.14010
C         35.45915        28.70860        -0.72168
C         34.16890        29.48841        -0.92240
C         35.38107        31.62423        -0.49561
C         34.21336        30.91585        -1.02285
C         35.35189        33.06971        -0.30496
C         34.23237        33.80268        -0.62664
C         35.47355        36.00112        -0.28546
C         34.23705        35.28316        -0.65412
C         35.41746        37.46574        -0.08868
C         34.18640        38.16268        -0.22048
C         35.38028        40.26523         0.18670
C         34.18310        39.55936        -0.10845
C         35.37413        41.69259         0.36297
C         34.11995        42.40461         0.30204
C         35.33880        44.53626         0.72629
C         34.10791        43.81992         0.49535
C         35.32309        45.96572         0.91828
C         34.11014        46.67961         0.87567
C         35.27970        48.81454         1.54269
C         34.04961        48.08563         1.08210
C         35.30985        50.25931         1.11204
C         34.07988        50.95011         0.98717
C         35.32167        53.18842         0.87342
C         34.04884        52.37521         0.86546
C         35.29637        54.33439        -0.11898
C         37.74055        18.82841         1.51191
C         36.42558        18.14024         1.25493
C         37.72934        20.25757         1.01572
C         36.49594        20.96475         0.91205
C         37.75903        23.06174         0.48485
C         36.50350        22.36971         0.61407
C         37.78638        24.48823         0.30694
C         36.57915        25.22017         0.15150
C         37.81928        27.32238         0.12075
C         36.59351        26.61211         0.07929
C         37.81608        28.76882         0.11213
C         36.61942        29.50528        -0.16610
C         37.71800        31.60963         0.52155
C         36.54893        30.90279        -0.06878
C         37.79597        33.08338         0.42293
C         36.42353        33.72104         0.58338
C         37.85921        35.91600         0.27499
C         36.51716        35.30618         0.55643
C         37.90582        37.36768        -0.12379
C         36.61976        38.13787         0.08406
C         37.83029        40.27028         0.45342
C         36.61543        39.55076         0.24728
C         37.80504        41.64154         0.69007
C         36.57666        42.38859         0.64308
C         37.79505        44.57169         0.98795
C         36.56947        43.82964         0.80491
C         37.82186        45.96044         1.08794
C         36.56893        46.69591         1.11120
C         37.81441        48.82618         1.61780
C         36.55894        48.06445         1.30659
C         37.77772        50.24289         1.08562
C         36.56934        50.93065         0.97772
C         37.73394        53.02095         0.35547
C         36.57648        52.36907         0.69134
C         37.73433        54.40376        -0.10123
C         36.43718        54.93043        -0.51705
C         40.17012        15.94488         0.83139
C         38.99647        16.65020         1.07584
C         40.18440        18.76325         0.86072
C         38.97715        18.05528         1.08870
C         40.19410        20.19972         0.81041
C         38.95445        20.92651         0.82070
C         40.22375        23.04292         0.54830
C         38.97068        22.34834         0.60171
C         40.24953        24.46155         0.44854
C         39.02501        25.18426         0.33321
C         40.28474        27.30704         0.27695
C         39.03793        26.60802         0.23415
C         40.28335        28.73587         0.31063
C         39.04662        29.43035         0.31029
C         40.30898        31.58887         0.62623
C         39.04416        30.85585         0.62498
C         40.24789        33.04356         1.02002
C         38.97713        33.75319         0.59243
C         40.29316        35.90089         0.49531
C         39.03434        35.21171         0.47555
C         40.30934        37.34196         0.55129
C         39.12380        38.06554         0.40888
C         40.29887        40.20568         0.95397
C         39.14927        39.55642         0.22480
C         40.35434        41.66613         0.89955
C         39.05800        42.34370         1.05343
C         40.35836        44.52978         1.01227
C         39.06563        43.83772         1.18640
C         40.35307        45.96362         1.03647
C         39.08855        46.69177         1.17874
C         40.33839        48.84333         1.33940
C         39.08064        48.06994         1.29673
C         40.33607        50.27200         0.96423
C         39.05052        51.04861         1.18519
C         40.25759        53.05843         0.36541
C         39.00999        52.23337         0.22604
C         40.14194        54.54900         0.54515
C         38.91758        55.12412        -0.16770
C         40.09566        57.21688        -0.74517
C         38.96119        56.47709        -0.67509
C         42.62446        15.92662         0.44720
C         41.39531        16.62594         0.64064
C         42.65155        18.74679         0.53368
C         41.40853        18.04979         0.66440
C         42.66055        20.17483         0.58592
C         41.42895        20.89057         0.67414
C         42.69304        23.01662         0.63813
C         41.44633        22.31989         0.61421
C         42.71248        24.45090         0.57453
C         41.49783        25.16086         0.45525
C         42.73935        27.30493         0.37354
C         41.50371        26.59428         0.36588
C         42.73804        28.73821         0.37684
C         41.51425        29.45114         0.39410
C         42.78129        31.57903         0.61080
C         41.51885        30.89490         0.52580
C         42.79803        33.05664         0.94236
C         41.50932        33.78411         0.66482
C         42.79653        35.89370         0.49688
C         41.52526        35.16551         0.53594
C         42.79063        37.32671         0.61296
C         41.57828        38.01357         0.71304
C         42.84356        40.20610         0.92762
C         41.59181        39.44087         1.05030
C         42.81079        41.61644         0.86622
C         41.55975        42.34921         0.93384
C         42.80569        44.49246         0.70293
C         41.55811        43.80571         0.90656
C         42.80233        45.94171         0.66904
C         41.57624        46.63683         0.94456
C         42.81921        48.82181         0.65997
C         41.63984        48.08975         1.13884
C         42.76699        50.22691         0.47204
C         41.48687        50.92733         0.58572
C         42.69060        53.10378         0.14758
C         41.46652        52.38829         0.38029
C         42.69711        54.50052         0.02990
C         41.45634        55.28007         0.24595
C         42.62091        57.19198        -0.98749
C         41.40956        56.67799        -0.34114
C         43.81504        16.60612         0.31830
C         45.12395        18.75344         0.27922
C         43.87068        18.02897         0.37295
C         45.13822        20.16502         0.42198
C         43.90238        20.88175         0.57758
C         45.17753        23.00556         1.04511
C         43.90356        22.29039         0.69674
C         45.18526        24.46423         0.64841
C         43.97002        25.15897         0.54454
C         45.20033        27.29800         0.35827
C         43.96581        26.58944         0.41366
C         45.19511        28.73118         0.30267
C         43.97996        29.44589         0.37156
C         45.26309        31.57401         0.37676
C         43.99029        30.88367         0.48823
C         45.31572        33.05887         0.68081
C         43.99651        33.71843         0.24848
C         45.24573        35.93152         0.36294
C         44.01046        35.21767         0.42198
C         45.25407        37.32687         0.49928
C         44.04095        38.04959         0.65421
C         45.28297        40.20640         0.54122
C         44.04909        39.47662         0.74604
C         45.24875        41.64286         0.55901
C         44.04475        42.34003         0.69637
C         45.25145        44.49064         0.33401
C         44.01775        43.78385         0.59489
C         45.18462        45.92968        -0.11155
C         43.97614        46.65856         0.40630
C         45.21458        48.80530         0.15560
C         43.99816        48.09568         0.38808
C         45.19327        50.21811         0.06770
C         43.95055        50.91034         0.13048
C         45.18484        53.08805        -0.18792
C         43.88986        52.33601        -0.34538
C         45.15683        54.49264        -0.28437
C         43.88549        55.19232        -0.34460
C         43.80677        56.52194        -0.86806
C         47.55609        18.78502        -0.04296
C         46.35918        18.08682         0.05456
C         47.61642        20.18276         0.10854
C         46.39174        20.89462         0.38389
C         47.71753        22.97986         0.89856
C         46.41928        22.26997         0.62822
C         47.66657        24.46015         0.60685
C         46.43193        25.15600         0.55707
C         47.66396        27.30024         0.35367
C         46.42614        26.58358         0.39604
C         47.63626        28.72284         0.14342
C         46.43470        29.43825         0.13951
C         47.59310        31.63325        -0.54945
C         46.41878        30.88776         0.07478
C         47.68951        33.09674        -0.18609
C         46.51074        33.79106         0.11191
C         47.68061        35.90897        -0.18585
C         46.49773        35.20491         0.12210
C         47.57505        37.39475        -0.44116
C         46.58692        38.04482         0.53227
C         47.61542        40.21827        -0.33458
C         46.46477        39.51853         0.25694
C         47.64989        41.71693        -0.20496
C         46.56522        42.37068         0.63156
C         47.71315        44.54548         0.10757
C         46.46585        43.83789         0.30632
C         47.70715        45.97249         0.08558
C         46.47658        46.68324         0.09269
C         47.70281        48.81663         0.04714
C         46.46943        48.08627         0.09157
C         47.67001        50.25644        -0.04345
C         46.43944        50.94560        -0.06632
C         47.64305        53.11462        -0.18054
C         46.41721        52.38547        -0.14423
C         47.58917        54.53315        -0.23455
C         46.38713        55.20420        -0.28331
C         50.06725        20.29253        -0.43516
C         48.86631        20.92303        -0.01009
C         50.13193        23.03369         0.18674
C         48.91344        22.29998         0.28699
C         50.13508        24.43366         0.46569
C         48.89896        25.16395         0.54513
C         50.13050        27.35556         0.70330
C         48.88071        26.59328         0.49581
C         50.15246        28.82419         0.41526
C         48.90625        29.43782        -0.11417
C         50.17637        31.66804        -0.21731
C         48.92123        30.90066        -0.41869
C         50.17369        33.06881        -0.37966
C         48.90537        33.79636        -0.36354
C         50.12683        35.97049        -0.56721
C         48.89678        35.21926        -0.36643
C         50.12072        37.34605        -0.63252
C         48.90428        38.12813        -0.49056
C         50.06985        40.33272        -1.05322
C         48.89285        39.49817        -0.54959
C         50.13685        41.73895        -0.47611
C         48.95678        42.42188        -0.22307
C         50.17779        44.56543        -0.04877
C         48.94031        43.84342        -0.01896
C         50.16883        45.96939         0.08425
C         48.94734        46.68845         0.09666
C         50.18327        48.84744        -0.03270
C         48.93352        48.12186         0.06477
C         50.15612        50.27980        -0.14009
C         48.90960        50.98351        -0.12322
C         50.13767        53.09547        -0.25723
C         48.89646        52.40332        -0.18274
C         51.26189        20.99043        -0.51429
C         52.59789        23.10094        -0.30624
C         51.34147        22.36617        -0.20648
C         52.63391        24.47061        -0.02657
C         51.42426        25.13715         0.49959
C         52.58405        27.35253         0.00515
C         51.43794        26.62413         0.68024
C         52.63193        28.84969         0.23735
C         51.42452        29.54610         0.16480
C         52.63678        31.67329        -0.09006
C         51.40112        30.96188        -0.03773
C         52.62208        33.08721        -0.28819
C         51.40176        33.77469        -0.44079
C         52.65101        35.96223        -0.38673
C         51.41325        35.22637        -0.86596
C         52.65578        37.39455        -0.43534
C         51.40174        38.07226        -0.83930
C         52.64496        40.30497        -0.68011
C         51.39640        39.57070        -0.98273
C         52.63221        41.72123        -0.57294
C         51.39018        42.44411        -0.44417
C         52.65785        44.56931        -0.29038
C         51.41070        43.84111        -0.22492
C         52.67745        45.97766        -0.16157
C         51.45470        46.70171         0.34183
C         52.63924        48.86475        -0.18637
C         51.40807        48.16249        -0.03125
C         52.62933        50.28598        -0.27374
C         51.37997        50.99789        -0.23047
C         51.33344        52.41953        -0.28402
C         55.03434        23.12442        -0.63122
C         53.83500        22.45428        -0.64618
C         55.11812        24.52324        -0.34558
C         53.87101        25.21475        -0.09299
C         55.13194        27.29736         0.34173
C         53.87328        26.59421         0.13748
C         55.12524        28.85532         0.40261
C         53.85629        29.56278         0.20428
C         55.12956        31.67450        -0.04307
C         53.87223        30.96556         0.03887
C         55.09235        33.09232        -0.20323
C         53.87985        33.80264        -0.27894
C         55.06022        35.97381         0.14025
C         53.83231        35.24444        -0.21222
C         55.07697        37.48926         0.06081
C         53.82784        38.15545        -0.32757
C         55.10592        40.29263        -0.48318
C         53.84942        39.58271        -0.51944
C         55.10313        41.71583        -0.59184
C         53.87183        42.43096        -0.54970
C         55.11473        44.57341        -0.59051
C         53.87837        43.85988        -0.49657
C         55.11018        46.00283        -0.52341
C         53.88656        46.70139        -0.31105
C         55.09985        48.85839        -0.42354
C         53.88370        48.14687        -0.27980
C         55.06023        50.28342        -0.45280
C         53.87232        50.96922        -0.39122
C         57.62462        24.59085        -0.59539
C         56.34118        25.24891        -0.39467
C         57.55412        27.41235        -0.18508
C         56.36846        26.64881        -0.10223
C         57.57802        28.80490         0.06129
C         56.38277        29.55760         0.15037
C         57.64334        31.67951        -0.11299
C         56.36936        30.97391        -0.00033
C         57.65767        33.08986        -0.22723
C         56.37278        33.81431        -0.34826
C         57.61207        36.03741         0.18007
C         56.35531        35.29701        -0.13826
C         57.56941        37.50795         0.01537
C         56.37711        38.18440        -0.12580
C         57.58436        40.31944        -0.50001
C         56.34442        39.60601        -0.36826
C         57.56014        41.71934        -0.77442
C         56.34315        42.42880        -0.72439
C         57.57744        44.58536        -0.86879
C         56.33725        43.86479        -0.75398
C         57.56801        46.01357        -0.80841
C         56.34164        46.72645        -0.63156
C         57.59284        48.83536        -0.67462
C         56.34849        48.14705        -0.56896
C         58.77519        25.29005        -0.71459
C         60.04802        27.46660        -0.53120
C         58.75187        26.78572        -0.87315
C         60.10061        28.72252        -0.07565
C         58.88395        29.50875         0.35140
C         60.07000        31.69111        -0.15390
C         58.87384        30.97515        -0.04579
C         60.07630        33.08510        -0.25141
C         58.87513        33.80752        -0.25287
C         60.02983        36.11227        -0.56240
C         58.90065        35.29469        -0.05918
C         60.00433        37.45572        -0.52468
C         58.89085        38.22584         0.16748
C         60.01507        40.45152        -0.17039
C         58.82450        39.67100        -0.25583
C         60.03977        41.76815        -0.52914
C         58.84162        42.40120        -1.18564
C         59.99173        44.63913        -1.22339
C         58.80430        43.90557        -1.05796
C         59.99647        46.02547        -1.15284
C         58.79167        46.73261        -0.93512
C         58.77379        48.15638        -0.85463
O         29.42228        30.10306        -2.95037
O         38.99225        42.98578         2.39162
O         55.00486        36.76384         1.35349
O         58.42660        35.59863         1.32168
O         32.28678        46.64385        -0.76196
O         28.37401        42.18224        -1.45488
O         35.28005        35.65623        -1.69576
O         51.72923        25.82397         1.83230
O         47.21572        41.13511        -1.44939
O         49.07632        29.89588        -1.50794
O         31.94417        30.03654        -2.73241
O         50.02533        28.34815         1.79741
O         41.60507        56.44802         1.11580
O         40.72494        39.68249         2.24061
O         36.04346        33.33663         1.87799
O         56.37547        34.76132        -1.50169
O         41.20445        48.52313         2.48632
O         55.18422        28.03007         1.61408
O         38.17847        31.12616         1.82073
O         51.53656        38.69801        -2.17854
O         35.35835        24.21396        -1.59292
H         34.54361        23.72183        -1.83020
O         43.67720        52.23439        -1.81440
H         44.43295        51.72493        -2.17851
O         26.86132        42.04407         1.87502
H         26.06275        42.38635         2.32997
O         59.21511        38.22340         1.59626
H         59.08393        37.29275         1.90562
O         24.47458        29.21019        -3.61112
H         24.45968        28.23654        -3.72656
O         39.02111        51.64930        -1.11400
H         38.99356        52.38080        -1.76552
O         58.95576        29.54964         1.82140
H         58.68394        28.67013         2.15996
O         35.13922        48.87137         3.04857
H         34.91035        47.96272         3.34418
O         47.15402        37.89133         1.86689
H         46.51197        38.24925         2.51522
O         43.81755        33.44901        -1.16625
H         44.62014        33.75403        -1.64055
O         37.85741        49.02567         3.08938
H         36.91196        49.14003         3.37677
O         35.39472        53.79955         2.20436
H         36.29486        54.17720         2.30579
O         58.99327        42.13592        -2.63833
H         59.00394        41.16138        -2.75112
O         51.51797        35.19572        -2.33321
H         51.61093        36.12380        -2.64070
O         33.39822        33.55688        -2.82219
H         33.89558        34.40520        -2.84013
O         39.45370        39.78120        -1.19876
H         38.86232        39.17336        -1.70933
O         51.60183        46.69681         1.82043
H         52.43072        47.17907         2.02879
O         46.97733        37.53452        -1.76123
H         47.62058        37.21106        -2.42569
O         31.46576        47.71274         2.63553
H         31.41949        48.55719         3.13242
O         25.48582        31.29277         0.11353
H         24.71269        31.80159         0.43953
O         44.99169        45.87345        -1.58085
H         45.70338        45.30365        -1.94453
O         52.22520        27.24806        -1.42841
H         52.84821        27.80195        -1.94522
O         47.91925        22.89497         2.38712
H         48.17540        21.96902         2.58965
O         39.09312        51.54159         2.54618
H         38.92446        50.76608         3.13393
O         35.83870        28.26696        -2.05998
H         35.80031        29.03900        -2.66253
O         49.79066        40.56132        -2.46279
H         50.15036        39.78312        -2.94887
O         58.54340        27.03333        -2.31118
H         57.77158        26.49644        -2.58996
O         35.18350        27.89956         1.50119
H         35.12376        27.11892         2.09013
O         39.86953        54.73742         1.96719
H         40.31354        55.58103         2.22182
O         42.93306        33.15856         2.39663
H         42.02771        33.02263         2.78087
O         37.85324        18.92268         2.98485
H         37.09208        19.45624         3.29836
O         47.04023        42.26204         2.01584
H         46.40161        42.73431         2.59075
O         47.25831        31.66172        -1.97341
H         47.68729        30.86714        -2.37272
O         45.20010        23.02303         2.52820
H         46.14634        23.16965         2.79107
O         40.18947        33.01400         2.50445
H         39.37760        32.49032         2.72621
O         45.52769        33.17691         2.11010
H         44.66577        33.02801         2.57061
O         33.04337        40.47723        -1.96687
H         32.25163        40.97977        -2.25714
O         38.08929        37.38576        -1.60863
H         38.81985        36.76459        -1.82016
O         36.25704        35.75293         1.91127
H         36.13061        34.89172         2.42582
O         26.56699        37.70438         1.46711
H         27.29615        38.17966         1.92000
H         22.12530        27.20069        -0.83138
H         22.20465        29.42704        -1.86057
H         22.50968        31.25585        -2.87753
H         22.39963        33.66996        -2.43260
H         22.29562        35.53139        -1.94892
H         22.23762        37.91127        -1.45608
H         22.10677        39.67341        -0.70564
H         22.04718        42.07515        -0.34127
H         22.01871        43.93324         0.13285
H         21.99902        46.38519         0.30526
H         25.27281        23.86361         0.41297
H         23.24067        25.14684        -0.12854
H         25.30348        49.80803         0.57959
H         23.20367        48.54098         0.44349
H         26.91666        22.83394         0.73117
H         26.94969        50.77620         0.59270
H         28.97332        21.59138         1.07215
H         29.03939        51.99239         0.76480
H         32.69491        19.32542         1.39894
H         30.62710        20.57537         1.20381
H         32.80522        54.13787         0.88515
H         30.68305        52.91654         0.92494
H         34.32807        18.28324         1.02793
H         34.32653        54.74914        -0.43121
H         36.37866        17.04338         1.31095
H         36.39514        55.81690        -1.16637
H         40.15723        14.84547         0.82001
H         38.07546        16.08362         1.26952
H         40.06554        58.22769        -1.17862
H         38.02553        56.92239        -1.04341
H         42.61208        14.82743         0.41648
H         42.56437        58.13789        -1.54542
H         44.73915        16.02757         0.18569
H         44.71273        56.96790        -1.30283
H         48.47556        18.21351        -0.22967
H         46.38235        16.99569        -0.06344
H         48.51638        55.12058        -0.23894
H         46.38460        56.30226        -0.31219
H         50.06403        19.22784        -0.70418
H         50.15545        54.19197        -0.30112
H         52.16019        20.44628        -0.83547
H         52.26228        53.00080        -0.34684
H         55.95071        22.56315        -0.86015
H         53.84011        21.38206        -0.88377
H         55.99012        50.85754        -0.55216
H         53.89728        52.06533        -0.44138
H         57.66229        23.49227        -0.57645
H         57.62173        49.93104        -0.61466
H         59.73531        24.76345        -0.82323
H         60.97939        26.92228        -0.75474
H         61.08273        29.16902         0.14350
H         61.03305        31.16565        -0.10499
H         61.03773        33.61686        -0.26805
H         60.86820        35.59272        -1.05113
H         60.85229        38.02407        -0.93709
H         60.92143        39.97822         0.23470
H         60.97453        42.33915        -0.44083
H         60.93484        44.11197        -1.42211
H         60.93560        46.58353        -1.27607
H         59.72137        48.70736        -0.94088
