         344
 CSIRO Nanostructure Databank - Neutral Graphene Oxide Data Set
C          1.24602         3.57512         0.70844
C          0.05325         4.25389         0.59172
C          1.20264         6.35317         0.03266
C          0.02984         5.62739         0.26051
C          1.18356         7.76297        -0.25284
C         -0.03677         8.51546        -0.28991
C          1.18402        10.60780        -0.69603
C         -0.05891         9.85523        -0.55668
C          1.19600        12.16361        -0.53001
C         -0.06993        12.88863        -0.28952
C          1.15126        14.84541         0.67984
C         -0.08801        14.11989         0.23608
C          1.18160        16.28780         0.25091
C          0.21960        16.94464        -0.53054
C          1.01099        19.18200         0.29300
C          0.21875        18.32361        -0.67361
C          1.13653        20.62591        -0.13786
C         -0.11414        21.35979        -0.30895
C          1.13873        23.42825         0.12262
C         -0.14539        22.70447        -0.21903
C          1.11230        24.93585        -0.03044
C         -0.06158        25.66072         0.21951
C          1.15753        27.75545         0.08677
C         -0.04590        27.05232         0.27822
C          1.20233        29.19659         0.26349
C          3.68831         3.55752         0.61634
C          2.49057         4.23922         0.47228
C          3.67596         6.30325        -0.15228
C          2.48843         5.65861         0.10847
C          3.68748         7.70518        -0.70091
C          2.41574         8.47108        -0.42085
C          3.70145        10.56814        -0.29647
C          2.42955         9.85240        -0.52200
C          3.69695        12.04425        -0.05419
C          2.44046        12.82704        -0.12117
C          3.69464        14.86880         0.41817
C          2.45120        14.15019         0.28890
C          3.68819        16.31844         0.56589
C          2.39189        17.02562         0.65803
C          3.62753        19.22887         0.33806
C          2.35857        18.52827         0.62319
C          3.60477        20.59845        -0.04657
C          2.33489        21.28359        -0.23340
C          3.58673        23.50605        -0.48214
C          2.28733        22.75863        -0.63876
C          3.58669        24.88308        -0.42291
C          2.33039        25.62948        -0.23317
C          3.58865        27.81632        -0.53515
C          2.34307        27.03800        -0.19275
C          3.63892        29.19552         0.07766
C          2.38289        29.87124         0.30984
C          6.11709         3.55103         0.69034
C          4.95415         4.19141         0.38412
C          6.21352         6.34800        -0.10072
C          4.95800         5.52250        -0.33259
C          6.21287         7.72604        -0.32931
C          4.98304         8.47047        -0.46817
C          6.24165        10.66427        -0.71108
C          4.98157         9.84691        -0.48688
C          6.16223        12.10723        -0.24566
C          4.98510        12.78228        -0.07121
C          6.15814        14.92209         0.35538
C          4.93288        14.20869         0.22141
C          6.16323        16.35779         0.83135
C          4.85410        17.06454         0.57767
C          6.07492        19.20794         0.19609
C          4.84503        18.51074         0.41359
C          6.04625        20.60342        -0.04069
C          4.82547        21.28997        -0.20068
C          6.05195        23.50223        -0.20190
C          4.84657        22.70566        -0.75358
C          6.08982        24.90712        -0.78622
C          4.82608        25.65200        -0.46091
C          6.11873        27.73959        -0.24223
C          4.86145        27.02339        -0.35734
C          6.10848        29.14406         0.08187
C          4.84130        29.82272         0.26014
C          8.57962         3.40183         0.03626
C          7.45170         4.22706         0.68812
C          8.66915         6.30919         0.15471
C          7.43235         5.64677         0.15781
C          8.71295         7.75090         0.05692
C          7.52404         8.46774        -0.52745
C          8.61122        10.63367         0.18150
C          7.48934         9.95186        -0.21761
C          8.65640        12.08645         0.21755
C          7.46317        12.85976        -0.30678
C          8.60402        14.98339         0.33831
C          7.37976        14.26852         0.21358
C          8.62071        16.38099         0.25726
C          7.36881        17.11297         0.31849
C          8.57144        19.15963        -0.41837
C          7.33203        18.47055         0.12132
C          8.62716        20.61657        -0.04453
C          7.32937        21.35429         0.00277
C          8.56428        23.46419        -0.44330
C          7.36874        22.78522        -0.30781
C          8.55809        24.91885        -0.51678
C          7.37737        25.62524        -0.47413
C          8.58828        27.75204        -0.10916
C          7.35034        27.05910        -0.31688
C          8.56403        29.14576         0.23639
C          7.30583        29.81297         0.31879
C         11.08986         3.43992         0.35818
C          9.89556         4.12537         0.24493
C         11.09666         6.24104         0.56386
C          9.88194         5.55287         0.34485
C         11.04458         7.68813         0.80155
C          9.82679         8.43957         0.46177
C         11.16025        10.63446         0.88283
C          9.74973         9.89586         0.88709
C         11.10371        12.07609         0.43439
C          9.83179        12.76589         0.45486
C         11.11591        14.93704         0.21487
C          9.86450        14.24995         0.69505
C         11.11055        16.34527         0.10209
C          9.86836        17.07932         0.10605
C         11.09754        19.18782        -0.21044
C          9.87822        18.46554        -0.11163
C         11.09713        20.62658        -0.34263
C          9.87215        21.36069        -0.33328
C         11.08180        23.49195        -0.45922
C          9.84276        22.75793        -0.42693
C         11.09749        24.90900        -0.46959
C          9.83774        25.66670        -0.78843
C         11.03565        27.73973        -0.01012
C          9.82172        27.06952        -0.23566
C         11.00955        29.12038         0.39089
C          9.77861        29.80361         0.49572
C         13.56561         3.45105         0.53903
C         12.34040         4.13139         0.47526
C         13.57881         6.29620         0.49141
C         12.33033         5.56587         0.53317
C         13.58518         7.68934         0.47144
C         12.35772         8.44593         0.68612
C         13.56674        10.56506         0.01143
C         12.23800         9.84314         0.11100
C         13.45744        12.00601        -0.45222
C         12.26513        12.74998         0.11242
C         13.54951        14.89449        -0.04106
C         12.30401        14.20166         0.05134
C         13.54864        16.30422        -0.00162
C         12.33970        17.04626        -0.03556
C         13.57271        19.19696        -0.23055
C         12.34776        18.48720        -0.14329
C         13.57159        20.63012        -0.35278
C         12.32170        21.33861        -0.38180
C         13.54779        23.47998        -0.38155
C         12.31664        22.76794        -0.40712
C         13.54042        24.89973        -0.31025
C         12.30513        25.62444        -0.34039
C         13.51461        27.77756        -0.02274
C         12.30340        27.06512        -0.15686
C         13.48237        29.14904         0.49173
C         12.23310        29.75803         0.69905
C         16.02483         3.42194         0.54502
C         14.81847         4.13315         0.46281
C         16.01763         6.30120         0.13012
C         14.81816         5.57581         0.34086
C         16.06923         7.71334         0.16648
C         14.85539         8.48393         0.59923
C         16.01849        10.55455        -0.28461
C         14.76608         9.89786         0.03993
C         15.97624        11.98303        -0.77743
C         14.75745        12.76128        -0.34547
C         16.07288        14.83507        -0.25842
C         14.79752        14.13047        -0.18614
C         16.11878        16.27983         0.05950
C         14.80349        17.05320         0.19164
C         16.04716        19.16760        -0.15008
C         14.83064        18.50193        -0.07577
C         16.06733        20.59119        -0.64374
C         14.78439        21.34529        -0.41785
C         16.03108        23.48389        -0.45382
C         14.79693        22.76726        -0.42626
C         16.02585        24.91565        -0.36106
C         14.77188        25.61216        -0.26529
C         15.99264        27.68916        -0.31524
C         14.75059        27.03764        -0.20692
C         15.93253        29.63438         0.57155
C         14.61801        29.86707         1.00409
C         18.58443         3.47306         0.47638
C         17.27887         4.03011         0.12314
C         18.52239         6.30416        -0.12036
C         17.25357         5.57043        -0.16363
C         18.48837         7.71599        -0.24501
C         17.26573         8.41618        -0.12457
C         18.48218        10.57130        -0.51472
C         17.22194         9.86267        -0.31557
C         18.46209        12.01863        -0.61755
C         17.27650        12.71609        -0.59915
C         18.52978        14.86967        -0.61975
C         17.26237        14.16321        -0.52686
C         18.55223        16.38090        -0.73812
C         17.31299        17.05895        -0.22773
C         18.56377        19.17323        -0.17254
C         17.30317        18.45243        -0.15207
C         18.54223        20.64626         0.16896
C         17.29777        21.37296        -0.28037
C         18.56198        23.47525        -0.48396
C         17.27780        22.74122        -0.37480
C         18.53828        24.99231        -0.43255
C         17.24105        25.65173        -0.24067
C         18.43699        27.81037         0.25660
C         17.23912        27.05647        -0.09546
C         18.37254        29.13380         0.83053
C         17.16345        29.83423         1.19624
C         19.73464         4.20486         0.34846
C         20.96868         6.36238         0.06095
C         19.73809         5.60134         0.02517
C         20.98988         7.69383        -0.18744
C         19.75581         8.41696        -0.66826
C         20.91807        10.67349        -0.23724
C         19.70468         9.91041        -0.43885
C         20.94417        12.02079        -0.36819
C         19.75655        12.71131        -0.97981
C         20.94600        14.96844        -0.98603
C         19.71643        14.20733        -0.80145
C         21.01573        16.28566        -0.69646
C         19.80703        16.97234        -0.09601
C         20.99935        19.22080        -0.06067
C         19.78428        18.49469        -0.16349
C         21.02654        20.61353        -0.09128
C         19.84286        21.36983        -0.11389
C         20.99996        23.58209        -0.21357
C         19.84173        22.78876        -0.23839
C         20.96416        24.98839        -0.14047
C         19.77533        25.72013        -0.11977
C         20.87013        27.81388         0.62760
C         19.69876        27.12803         0.24020
C         20.80955        29.12042         1.11093
C         19.57928        29.74632         1.25739
O          9.31416         9.78941         2.22283
O         16.00800        29.02114        -0.70373
O         15.53416        16.61391         1.37714
O          2.31211        17.83045         1.92249
O          3.64961        11.11803         1.11443
O         18.59318        24.26774        -1.72356
O         17.19019         4.59384        -1.23639
O         11.75409         8.17159         1.98350
O          8.07219        20.97597         1.25536
O          1.25449        11.53808        -1.85086
O          1.99942        22.80607        -2.06275
H          2.82975        22.53745        -2.52196
O         16.16284        20.44440        -2.12527
H         16.18892        21.34950        -2.50549
O         11.77220         9.65759        -1.25514
H         12.04674        10.46082        -1.77018
O         18.64803        16.69077        -2.16045
H         17.89124        16.27268        -2.62036
O         19.89135        12.50820        -2.43767
H         19.92947        11.53825        -2.58902
O          3.51198        28.05555        -1.99520
H          4.14728        28.77297        -2.20497
O         13.15685        11.92087        -1.90727
H         14.02525        11.72620        -2.35108
O          5.81370        23.67162         1.22163
H          6.03000        22.82947         1.67561
O          1.41226        23.19141         1.53552
H          0.64352        23.51090         2.05177
O          7.84460         4.30608         2.10027
H          7.20572         4.88865         2.56270
O          9.92920        14.36291         2.16706
H          9.90354        15.31644         2.39567
O         11.59483        10.73471         2.24722
H         10.79464        10.42800         2.77390
O          9.87032        25.82203        -2.26138
H          9.03866        26.27134        -2.52374
O          6.30675        16.29942         2.29425
H          6.22180        17.21503         2.63541
O         19.77446        16.63725         1.31828
H         20.62625        16.91072         1.71691
O         14.99776         8.65453         2.05845
H         14.15097         9.01822         2.40198
O          6.35116        10.74594        -2.18727
H          7.04552        11.43441        -2.36471
O          6.11099        24.82213        -2.26273
H          5.80641        25.68736        -2.61084
O          7.71917         8.38550        -1.98744
H          7.13576         9.07891        -2.39044
O          7.75769        13.02077        -1.76776
H          7.11887        13.67777        -2.12024
O         15.83197        11.85478        -2.26722
H         16.15418        12.69304        -2.66374
O          4.91369        22.50271        -2.19490
H          5.28988        23.32953        -2.59239
O          3.67324         7.53421        -2.18070
H          2.79856         7.15826        -2.42098
O          0.20065        19.20841         1.50285
H          0.61185        18.55414         2.11985
O          1.11997        14.84519         2.14224
H          1.82396        15.45085         2.46062
O          8.44307        19.15391        -1.88031
H          8.48362        18.22174        -2.18107
O          5.00775         5.17738        -1.75891
H          4.81623         6.01174        -2.25549
O         19.79386         8.30213        -2.14845
H         19.74349         7.34506        -2.36184
O          8.61898         2.10515         0.62520
H          8.63032         2.24039         1.59714
O         18.42894        20.67113         1.65466
H         19.10024        20.04786         2.00714
H          1.25795         2.50871         0.97565
H         -0.89786         3.73158         0.76495
H         -0.94830         6.12118         0.18932
H         -0.99495         7.99471        -0.15945
H         -1.02060        10.37445        -0.66356
H         -1.00858        12.41038        -0.60409
H         -1.04919        14.62518         0.41289
H         -0.55430        16.34886        -1.04034
H         -0.55410        18.79883        -1.29472
H         -1.04017        20.78553        -0.45844
H         -1.09774        23.24707        -0.30921
H         -1.00954        25.13208         0.39422
H         -0.97086        27.60541         0.49585
H          0.25536        29.72428         0.45032
H          3.67955         2.51652         0.97446
H          2.40345        30.94446         0.55246
H          6.08038         2.54351         1.13427
H          4.86264        30.86658         0.61082
H          8.38294         3.27740        -1.06006
H          7.28548        30.87784         0.59506
H         11.08640         2.34060         0.31408
H          9.77384        30.86664         0.77867
H         13.56800         2.35080         0.56827
H         12.20585        30.78510         1.09292
H         16.01858         2.37150         0.87119
H         14.43144        30.61525         1.78937
H         18.62253         2.45710         0.89641
H         17.22334        30.52311         2.05222
H         20.69935         3.73702         0.59642
H         21.89893         5.83294         0.31747
H         21.95375         8.22171        -0.18945
H         21.82552        10.14612         0.08973
H         21.86809        12.58401        -0.17314
H         21.83024        14.43942        -1.37098
H         21.96452        16.82774        -0.82250
H         21.95444        18.67784        -0.03114
H         22.00173        21.11735        -0.14749
H         21.98369        23.09876        -0.13291
H         21.92662        25.50255        -0.01286
H         21.84540        27.31292         0.57949
H         21.73080        29.63496         1.41693
H         19.52939        30.75105         1.70084
