         598
 CSIRO Nanostructure Databank - Neutral Graphene Oxide Data Set
C         23.87506        70.14129        -3.59002
C         23.70895        71.53476        -3.27771
C         22.49403        72.20412        -3.58063
C         23.27103        74.21837        -2.46893
C         22.29243        73.52510        -3.18427
C         26.26747        65.87565        -2.86529
C         26.20913        67.29212        -2.81096
C         25.09886        68.00288        -3.31010
C         26.15210        70.14933        -2.63314
C         25.00104        69.41632        -3.20390
C         26.00883        71.61999        -2.30791
C         24.71045        72.25076        -2.57161
C         25.52841        74.28738        -1.43271
C         24.49657        73.58935        -2.13987
C         28.54661        61.54261        -2.04728
C         27.96193        62.74672        -1.72812
C         27.17675        63.67025        -2.48053
C         28.45921        65.75034        -1.66385
C         27.24417        65.05888        -2.24422
C         28.44838        67.25858        -1.67310
C         27.24913        68.01645        -2.09870
C         28.00498        70.05496        -0.89223
C         27.18881        69.37600        -1.93032
C         27.90155        71.51897        -0.69886
C         26.90793        72.23533        -1.29801
C         27.75529        74.36245        -0.37083
C         26.71088        73.66031        -1.00490
C         30.58760        57.27931        -1.08353
C         30.75483        58.71623        -0.99916
C         29.66350        59.49793        -1.42231
C         30.58591        61.52822        -0.43303
C         29.57781        60.88729        -1.25232
C         30.60854        62.96960        -0.21365
C         29.48942        63.77177        -0.51580
C         30.76738        65.80827        -0.52624
C         29.57128        65.12254        -0.87263
C         30.78447        67.29611        -0.54603
C         29.53314        68.01540        -0.94923
C         30.12088        69.97197         0.65380
C         29.13837        69.29474        -0.27043
C         30.04447        71.47540         0.76555
C         28.73997        72.19278         0.37309
C         30.14259        74.31608         0.17776
C         28.93760        73.66988         0.04491
C         33.11001        52.98492        -0.88793
C         33.04969        54.37698        -0.84861
C         31.79050        55.02527        -1.02735
C         33.35716        57.45342        -0.55140
C         31.65118        56.40653        -1.28637
C         33.08094        58.69216         0.00841
C         31.87434        59.40133        -0.39422
C         32.72339        61.39426         0.86965
C         31.71940        60.76533        -0.03954
C         32.75800        62.90598         0.98780
C         31.76151        63.67753         0.21534
C         32.96327        65.77531         0.73234
C         31.81149        65.09160         0.13242
C         32.94606        67.26242         0.87202
C         31.77782        68.00472         0.33255
C         32.54830        70.10749         1.56090
C         31.40028        69.28779         1.01448
C         32.63795        71.47845         1.04051
C         31.35710        72.20421         0.83694
C         32.66664        74.33519         0.52478
C         31.43970        73.55308         0.15951
C         35.67445        48.82352        -1.21091
C         35.47617        50.07274        -0.59234
C         34.32085        50.82937        -0.80870
C         35.41427        52.87764        -0.01590
C         34.27739        52.23007        -0.53866
C         35.51781        54.33420        -0.05475
C         34.31733        55.11479        -0.52972
C         35.34947        57.10424         0.91885
C         34.22725        56.48853         0.06772
C         35.31512        58.55916         1.11241
C         34.10630        59.23703         0.87285
C         35.26533        61.36452         1.65004
C         33.94893        60.62188         1.30984
C         35.28292        62.79790         1.34580
C         33.99310        63.59867         1.57023
C         35.05981        65.83943         1.98155
C         34.02515        65.08726         1.25635
C         34.65043        67.09358         2.58157
C         33.71681        67.88437         1.98842
C         35.09253        70.12367         2.25300
C         33.73910        69.38267         2.16726
C         35.07348        71.58106         1.82568
C         33.73629        72.34468         1.61947
C         35.07489        74.35122         0.81069
C         33.83621        73.69779         0.92660
C         38.32423        44.81643        -2.41521
C         37.75759        45.77668        -1.58897
C         36.90346        46.87106        -1.84335
C         37.91520        48.55947        -0.16984
C         36.82300        48.02795        -1.01027
C         37.85520        49.89991         0.27735
C         36.56227        50.60794         0.24212
C         37.80247        52.80541         0.81667
C         36.52449        52.11755         0.54625
C         37.80941        54.22433         0.93193
C         36.62637        54.99495         0.69424
C         37.81322        57.07421         1.34286
C         36.61601        56.35711         1.00032
C         37.78529        58.50788         1.53774
C         36.54645        59.23516         1.47155
C         37.78793        61.36192         1.71606
C         36.55353        60.64183         1.60377
C         37.77371        62.81406         1.62300
C         36.52279        63.37363         1.19983
C         37.65708        65.95857         2.35079
C         36.38119        65.50212         1.80472
C         37.73097        67.32278         2.68205
C         36.55629        68.15942         2.81634
C         37.65702        70.07787         1.82114
C         36.42061        69.40426         2.23050
C         37.60551        71.44061         1.29854
C         36.29056        72.09448         1.10734
C         37.58237        74.21863         0.44979
C         36.29624        73.57156         0.65894
C         40.87352        40.67097        -2.95929
C         40.78147        41.96947        -2.40693
C         39.65792        42.79226        -2.64817
C         40.57396        44.55473        -1.21283
C         39.48892        44.04174        -2.02675
C         40.51324        45.84795        -0.53274
C         39.28772        46.47013        -0.24258
C         40.30611        48.50619         0.57031
C         39.15238        47.85281         0.04633
C         40.23362        49.89128         0.93840
C         39.00774        50.59770         0.77450
C         40.20229        52.74354         1.24716
C         38.97854        52.03825         0.98622
C         40.19838        54.16148         1.36699
C         39.01532        54.92247         1.25605
C         40.26912        57.08515         1.61883
C         39.03216        56.36148         1.39473
C         40.26590        58.50863         1.79793
C         39.00805        59.22593         1.74388
C         40.26725        61.46342         1.73178
C         38.99635        60.64128         1.84187
C         40.12171        62.86991         2.35653
C         38.87557        63.66462         1.97117
C         40.11551        65.77411         2.54113
C         38.81910        65.07353         2.27206
C         40.22258        67.28730         2.56120
C         38.98451        68.13932         2.79212
C         40.14375        70.11338         1.72350
C         38.87179        69.42561         1.98638
C         40.06950        71.48955         1.13221
C         38.75059        72.10867         0.90269
C         40.01127        74.14307         0.13125
C         38.76360        73.49606         0.45487
C         43.16525        36.33523        -3.78026
C         42.68096        37.42389        -3.04574
C         41.94850        38.55832        -3.42278
C         43.01401        40.26798        -1.82185
C         41.93657        39.79023        -2.67866
C         43.03096        41.64353        -1.41031
C         41.88401        42.49512        -1.66157
C         43.03125        44.46378        -0.69536
C         41.79619        43.82865        -1.19465
C         42.97489        45.86119        -0.13558
C         41.66298        46.53429        -0.03795
C         42.65417        48.31515         1.42040
C         41.53117        47.76124         0.63043
C         42.60583        49.80191         1.80631
C         41.41229        50.59072         1.38369
C         42.64163        52.69334         1.85277
C         41.40676        51.97812         1.44723
C         42.72843        54.13663         1.46976
C         41.46757        54.91535         1.35376
C         42.70309        57.02639         1.98132
C         41.48854        56.37344         1.61572
C         42.66171        58.43197         2.27165
C         41.49367        59.18935         2.07912
C         42.80114        61.41350         2.64096
C         41.57073        60.70067         2.09316
C         42.73752        62.90482         3.13345
C         41.38877        63.58637         2.74942
C         42.64011        65.76375         2.03742
C         41.37575        65.01152         2.25436
C         42.62988        67.24272         1.88939
C         41.42534        67.96190         1.99442
C         42.54295        69.91639         1.02365
C         41.38653        69.30824         1.56313
C         42.48901        71.23499         0.34153
C         41.21090        72.00426         0.32106
C         42.44689        74.05697        -0.34015
C         41.22269        73.46090         0.04092
C         45.59040        33.49465        -3.78038
C         44.45018        34.27666        -3.96852
C         45.39418        36.04936        -2.56059
C         44.30026        35.55003        -3.36590
C         45.41778        37.35734        -1.95565
C         44.22891        38.09380        -1.74527
C         45.40347        40.07835        -1.05974
C         44.19144        39.49252        -1.54756
C         45.35939        41.40621        -0.53361
C         44.15297        42.15026        -0.70762
C         45.06478        43.93348         0.82443
C         44.21271        43.59175        -0.38355
C         45.17460        45.42031         1.18824
C         44.09442        46.34903         0.71966
C         45.12622        48.31031         1.74180
C         43.96575        47.65233         1.40980
C         45.10710        49.74670         1.92900
C         43.92048        50.45718         1.96312
C         45.21573        52.65190         2.10689
C         43.90662        51.92876         2.11383
C         45.27116        54.11550         1.83041
C         44.00104        54.88875         1.69416
C         45.10727        56.84404         2.74396
C         43.92312        56.29083         2.10579
C         45.14965        58.31128         3.01348
C         43.83369        59.04591         2.94387
C         45.28315        61.05610         3.37529
C         43.89617        60.50815         3.22656
C         45.28278        63.24387         3.05048
C         43.96375        63.77497         2.77457
C         45.15906        65.84937         2.28110
C         43.90540        65.08345         2.36775
C         45.11337        67.28308         1.83411
C         43.81587        67.92077         1.55777
C         45.01009        69.92344         0.64149
C         43.78369        69.24925         1.07270
C         44.96067        71.31309         0.18759
C         43.74529        71.96424         0.06439
C         44.87902        74.01095        -0.70197
C         43.67723        73.35464        -0.34637
C         46.67594        34.00204        -3.07449
C         47.79649        35.89761        -1.97822
C         46.61040        35.30060        -2.51151
C         47.84141        37.22087        -1.58092
C         46.63570        37.98114        -1.55209
C         47.80714        39.93447        -0.54762
C         46.60852        39.32315        -1.03392
C         47.75938        41.24516         0.03928
C         46.51429        41.94319         0.10831
C         47.68899        43.91370         1.33079
C         46.41450        43.21240         0.86344
C         47.74419        45.38413         1.50355
C         46.44199        46.07620         1.67859
C         47.73139        48.28452         1.73056
C         46.42507        47.57129         1.84671
C         47.68509        49.74499         1.44421
C         46.39466        50.45508         1.65686
C         47.69233        52.66940         1.38316
C         46.48784        51.91336         1.93511
C         47.74416        54.07979         1.93534
C         46.55015        54.76291         2.16890
C         47.71918        56.93506         2.57889
C         46.48581        56.12408         2.68227
C         47.71606        58.31368         2.53693
C         46.47063        59.04311         2.87042
C         47.71186        61.29864         2.63880
C         46.43774        60.53007         2.85670
C         47.71252        62.82879         2.35720
C         46.43672        63.61954         2.38313
C         47.54658        65.65953         1.30403
C         46.45661        65.07075         2.12544
C         47.58375        67.13743         1.09083
C         46.34826        67.93850         1.31169
C         47.51956        70.00409         0.58033
C         46.21731        69.26926         0.68253
C         47.41667        71.33656        -0.11024
C         46.19409        71.98630        -0.18096
C         47.32874        74.03064        -0.98800
C         46.13127        73.36156        -0.65306
C         49.16440        37.85305        -1.22080
C         50.22245        39.87678        -0.24700
C         49.05647        39.24432        -0.63312
C         50.21886        41.21055         0.26438
C         48.97129        41.84902         0.49536
C         50.27973        43.95475         1.16375
C         48.97711        43.16861         1.14273
C         50.21715        45.42767         1.17703
C         48.95110        46.10019         1.37600
C         50.15904        48.28240         1.27365
C         48.98305        47.55102         1.42455
C         50.17053        49.74814         1.37961
C         48.96622        50.49009         1.50895
C         50.20221        52.59684         1.63513
C         48.97677        51.89107         1.58230
C         50.21326        54.02901         1.87337
C         48.98481        54.72082         2.12701
C         50.23580        56.93718         2.21239
C         48.98002        56.15624         2.48865
C         50.13068        58.38578         1.90230
C         48.89491        59.10391         2.18110
C         49.93945        61.21818         1.38880
C         48.85215        60.50036         2.09137
C         50.00200        62.70736         1.30952
C         48.86420        63.43265         1.60008
C         49.99989        65.51344         0.65469
C         48.77179        64.82402         1.07251
C         50.03059        67.02686         0.61454
C         48.68813        67.71707         0.55925
C         49.83503        69.79662        -0.49502
C         48.61603        69.11003         0.02861
C         49.81669        71.26271        -0.64828
C         48.63123        71.97022        -0.56528
C         49.78592        74.04472        -1.24983
C         48.58640        73.37866        -0.95951
C         51.44996        41.91730         0.38491
C         52.67262        44.05764         0.54151
C         51.49940        43.29060         0.65831
C         52.66382        45.45737         0.74943
C         51.40509        46.14377         1.00081
C         52.61229        48.28294         0.91363
C         51.41083        47.58376         1.05844
C         52.58871        49.75041         0.83238
C         51.37319        50.47151         1.24430
C         52.66462        52.60422         1.34261
C         51.41366        51.88284         1.41043
C         52.67153        54.02732         1.52119
C         51.43872        54.72686         1.81264
C         52.58947        56.86427         1.52923
C         51.44369        56.17124         1.81623
C         52.48104        58.27306         1.13029
C         51.24704        59.02636         1.41802
C         52.46228        61.16561         0.73284
C         51.19447        60.43087         0.99436
C         52.36433        62.59434         0.48211
C         51.19847        63.32702         0.72118
C         52.36689        65.46595         0.08155
C         51.18838        64.78092         0.47390
C         52.34534        66.84972        -0.42603
C         51.05231        67.61030        -0.35257
C         52.31831        69.73495        -0.73114
C         51.11795        69.07677        -0.50713
C         52.32486        71.17866        -0.91505
C         51.02828        71.86038        -1.31399
C         52.24086        74.04810        -1.22021
C         51.05167        73.36904        -1.22719
C         53.86130        46.19763         0.67327
C         55.10142        48.33385         0.78539
C         53.87641        47.60751         0.77409
C         55.16591        49.74023         0.87980
C         53.89791        50.49817         0.78813
C         55.12218        52.61297         1.15191
C         53.89095        51.92826         1.14262
C         55.11712        54.04211         1.19607
C         53.88422        54.72945         1.38180
C         55.05996        56.94115         0.98473
C         53.93018        56.20705         1.65447
C         55.02677        58.29925         0.79748
C         53.71887        59.01034         0.73649
C         54.93100        61.12164         0.24635
C         53.66121        60.48356         0.65929
C         54.89979        62.56477        -0.10171
C         53.56255        63.25170        -0.11135
C         54.87146        65.48105        -0.27940
C         53.58953        64.73839        -0.24666
C         54.83402        66.86936        -0.41427
C         53.60827        67.59839        -0.54885
C         54.78784        69.77503        -0.70611
C         53.58508        69.01274        -0.67527
C         54.77078        71.17797        -0.83406
C         53.51088        71.87523        -0.92910
C         54.73310        73.92499        -1.65313
C         53.55260        73.38714        -0.89726
C         56.35992        50.46612         0.99930
C         57.57302        52.63337         1.04126
C         56.37693        51.89802         1.05342
C         57.57603        54.06205         0.97044
C         56.33141        54.74903         1.00712
C         57.55414        56.94088         0.73168
C         56.27706        56.17622         0.55069
C         57.51299        58.34972         0.64814
C         56.25404        59.03912         0.59008
C         57.42127        61.18916         0.43683
C         56.23092        60.44592         0.50069
C         57.38160        62.69612         0.56076
C         56.13103        63.36711         0.03354
C         57.37178        65.47187        -0.03259
C         56.11623        64.74759        -0.11198
C         57.33334        66.93909         0.04059
C         56.11152        67.61151        -0.48922
C         57.29025        69.92470        -0.17759
C         56.10110        69.09239        -0.64547
C         57.25236        71.25552        -0.91423
C         55.99334        71.88975        -1.08140
C         57.15511        73.83153        -2.08856
C         55.94344        73.23493        -1.62389
C         58.78160        54.81148         0.85401
C         59.99659        56.99055         0.71508
C         58.79262        56.23761         0.77564
C         59.98310        58.39874         0.58765
C         58.72459        59.09610         0.57289
C         59.89381        61.24778         0.26475
C         58.67786        60.51504         0.45732
C         59.83684        62.65026         0.01303
C         58.64385        63.37346         0.08767
C         59.83202        65.57283        -0.20689
C         58.60104        64.80561        -0.05154
C         59.86275        66.94402        -0.16498
C         58.62422        67.72472         0.03555
C         59.75064        69.81086        -0.69604
C         58.60742        69.17102        -0.34198
C         59.72394        71.27691        -0.96483
C         58.42503        71.89629        -1.30005
C         59.61233        73.81719        -2.34882
C         58.39791        73.20050        -1.91569
C         61.17836        59.15536         0.44158
C         62.36640        61.26954         0.00103
C         61.15508        60.54967         0.23870
C         62.37110        62.63355        -0.33401
C         61.06614        63.32460        -0.45837
C         62.34880        65.54091        -0.64139
C         61.06076        64.82646        -0.56031
C         62.36080        66.92939        -0.68185
C         61.15459        67.73043        -0.21814
C         62.30958        69.79186        -1.00697
C         61.00166        69.01524        -1.05189
C         62.29595        71.27256        -1.29905
C         60.98314        72.01036        -1.32532
C         62.05500        73.79977        -2.67061
C         60.87966        73.24216        -2.14863
C         63.54295        63.35737        -0.61100
C         64.74194        65.45830        -1.13460
C         63.55471        64.77177        -0.82862
C         64.74779        66.86385        -1.33144
C         63.54323        67.61554        -1.09793
C         64.67948        69.69029        -1.78283
C         63.53263        69.02006        -1.32826
C         64.63522        71.09267        -2.14559
C         63.44736        71.84583        -2.00990
C         64.47286        73.73651        -3.17107
C         63.32910        73.14511        -2.60270
C         65.91079        67.55174        -1.74455
C         67.04508        69.60529        -2.48581
C         65.89528        68.94103        -1.99558
C         67.00594        70.96494        -2.86771
C         65.78152        71.70109        -2.73714
C         66.87633        73.64995        -3.75951
C         65.71019        73.04890        -3.21061
C         68.14611        71.61283        -3.41342
C         68.07169        72.93827        -3.84257
O         52.86092        58.40393        -0.31139
O         48.11750        62.26639         3.65495
O         36.58601        64.66736         0.69019
O         32.07867        62.07177         1.99335
O         44.86577        54.58632         0.49655
O         27.83362        69.25519         0.36904
O         57.88943        67.47369         1.28916
O         62.55501        70.74534         0.05068
O         36.13997        51.11494         1.54606
O         43.03600        37.39791        -1.66783
O         38.14545        45.68480        -0.23042
O         44.20653        44.37540        -1.60228
O         54.92939        61.54926        -1.18084
O         60.42364        72.13220         0.02250
O         44.06951        46.66006        -0.72376
O         45.64997        56.12067         3.89203
O         49.88879        56.54577         3.58697
O         45.33481        62.27023         4.02926
O         32.72739        69.94872         3.04276
O         28.22267        63.21137        -0.42179
O         41.56486        71.18012        -0.83335
O         29.03167        66.51487        -2.78887
O         45.95851        68.09592         2.73774
O         40.38608        66.49287         3.79998
O         45.45714        45.50625         2.61468
O         43.44958        59.60460         4.26746
O         30.24930        69.21284         1.90105
O         47.66193        64.93237         0.03178
O         30.71580        68.06561        -1.80056
O         43.05246        52.41080         3.22574
O         60.86861        63.98051        -1.76052
O         46.06023        52.29978         3.26344
O         36.02947        72.41049        -0.27437
O         34.18490        56.44516         1.52656
O         48.80871        69.15183        -1.41041
O         41.90183        65.10838         0.89855
O         32.81906        57.06746        -1.77124
O         42.67541        61.19854         1.21511
O         34.33601        60.89428         2.68298
O         40.38472        71.32450         2.55481
O         46.85839        50.12790         0.27659
O         42.26771        48.75905         2.76374
O         47.17661        47.96397         3.05231
O         50.13899        60.68558         0.02214
O         35.20899        71.21816         3.22425
O         35.41793        54.90737        -1.44859
O         26.71368        71.18042        -3.52775
O         46.85079        43.14503         2.26328
O         35.48722        67.62901         3.55469
O         51.37421        66.90865        -1.57228
O         53.14393        50.24187        -0.45062
O         49.77711        43.27484         2.36555
O         53.33587        63.85262        -1.42941
O         30.49610        72.05001         2.03010
O         46.11359        65.74069         3.38192
O         42.22386        54.45519         0.13964
O         45.93117        58.60349         4.18711
O         40.40916        63.18296         3.75900
O         56.37061        68.23982        -1.80737
O         33.07462        68.07902        -0.35540
O         39.07093        68.64062         4.15883
H         39.43539        67.90755         4.70671
O         33.85536        63.59591         3.01522
H         33.50088        62.70544         3.26199
O         60.85562        68.64551        -2.44680
H         60.08662        68.04338        -2.53783
O         42.77886        62.83419         4.56467
H         41.85600        62.75652         4.89935
O         31.64092        73.19284        -1.26596
H         31.80927        74.01848        -1.76798
O         57.07252        70.19262         1.22653
H         57.86765        70.64294         1.58114
O         47.50678        52.78961        -0.05026
H         47.37069        51.87744        -0.40430
O         50.58115        67.45468         1.92161
H         49.93118        67.23212         2.62263
O         33.23607        72.69803         2.93425
H         33.10518        71.85220         3.43164
O         50.86596        71.56198        -2.74274
H         50.61813        70.61574        -2.82796
O         61.42573        68.17187         1.13638
H         61.37370        67.39957         1.73606
O         53.80715        73.73598         0.52099
H         53.11253        73.30174         1.06074
O         47.92889        70.27963         1.96848
H         47.20748        69.99812         2.57343
O         40.34936        61.75920         0.30882
H         41.30142        61.87016         0.07953
O         54.25885        56.32922         3.10228
H         53.56498        55.84810         3.60383
O         57.31695        62.93615         2.03307
H         58.15677        62.60513         2.41829
O         27.91357        72.17011         1.56732
H         28.51789        72.28214         2.33574
O         56.12935        56.05430        -0.92972
H         56.01460        56.96164        -1.28823
O         44.27374        43.34194         1.88899
H         44.79912        43.46055         2.71577
O         49.90783        36.99946        -0.33791
H         49.42332        36.93881         0.51073
H         23.09807        75.25969        -2.16237
H         25.36980        75.34846        -1.18773
H         27.72600        75.46255        -0.33517
H         30.18674        75.40290        -0.00470
H         32.74440        75.35584         0.11150
H         35.10032        75.41730         0.53425
H         37.60311        75.30765         0.29754
H         39.98201        75.21751        -0.10528
H         42.45282        75.12316        -0.61325
H         44.83554        75.06308        -1.02155
H         47.28242        75.08734        -1.29205
H         49.77016        75.13260        -1.41866
H         52.22984        75.15014        -1.21660
H         54.68712        74.93853        -2.07887
H         57.11711        74.84094        -2.52398
H         59.54536        74.76990        -2.89542
H         61.99256        74.75168        -3.21914
H         64.40368        74.74800        -3.59727
H         66.82492        74.68661        -4.12177
H         23.03590        69.61435        -4.06905
H         21.70661        71.66739        -4.12876
H         21.34680        74.02686        -3.43301
H         25.44142        65.35969        -3.37982
H         24.26749        67.44543        -3.76759
H         28.25756        61.04043        -2.98270
H         26.49104        63.30466        -3.26062
H         29.56746        56.88237        -0.97297
H         28.84912        58.99216        -1.96164
H         32.21134        52.42600        -1.18843
H         30.88116        54.41317        -0.92981
H         34.88651        48.44224        -1.87741
H         33.48187        50.37645        -1.35716
H         37.91093        44.64334        -3.41984
H         36.24264        46.83924        -2.72315
H         40.06005        40.32214        -3.61309
H         38.85712        42.41136        -3.29902
H         42.70751        36.09277        -4.75095
H         41.36393        38.53084        -4.35455
H         45.64769        32.49596        -4.23499
H         43.63064        33.89274        -4.59289
H         47.60706        33.42437        -2.98945
H         48.72197        35.30284        -1.96120
H         49.77663        37.92452        -2.16364
H         51.18317        39.35469        -0.36582
H         52.37882        41.39396         0.11286
H         53.61461        43.56405         0.25958
H         54.80913        45.66017         0.52176
H         56.04153        47.76228         0.76006
H         57.31852        49.92589         1.01528
H         58.53343        52.09805         0.99928
H         59.74179        54.27405         0.84406
H         60.96196        56.46310         0.73252
H         62.14509        58.62988         0.43361
H         63.32113        60.72422         0.04596
H         64.50532        62.82361        -0.62253
H         65.67620        64.89388        -1.27003
H         66.83872        66.98626        -1.91629
H         67.97732        69.03572        -2.61869
H         69.08904        71.05486        -3.50293
H         68.96347        73.42226        -4.26489
