         404
 CSIRO Nanostructure Databank - Neutral Graphene Oxide Data Set
C          1.38273         3.74269        -2.45731
C          0.22331         4.47312        -2.63569
C          1.24879         6.40004        -1.53420
C          0.15888         5.80332        -2.19519
C          1.11061         7.75231        -0.92497
C          0.12353         8.68141        -1.49932
C          1.11401        10.62414        -0.36992
C          0.11967        10.00696        -1.20002
C          1.10808        12.02860        -0.18423
C         -0.08278        12.78443        -0.38347
C          1.14328        14.87704        -0.15852
C         -0.06642        14.15978        -0.35353
C          1.15802        16.38834        -0.34709
C         -0.10164        17.12201         0.06311
C          1.18710        19.21187         0.23259
C         -0.06097        18.44974         0.29217
C          1.18766        20.65269         0.24199
C         -0.00704        21.41231         0.18666
C          1.22189        23.50787         0.44981
C          0.01454        22.79395         0.27094
C          1.23605        24.95875         0.57359
C          0.06994        25.73043         0.35902
C          1.24338        27.80079         0.91869
C          0.07165        27.10039         0.54087
C          1.22509        29.26058         1.01725
C         -0.03290        29.99927         1.05790
C          1.10465        32.14917         1.50231
C         -0.11236        31.33055         1.30860
C          1.14825        33.67525         1.48740
C         -0.08547        34.45798         1.24223
C          1.18177        36.43039         0.48279
C         -0.05851        35.73690         0.80231
C          1.17237        37.77948         0.02226
C          3.73820         3.62761        -1.84503
C          2.52865         4.33518        -1.84319
C          3.54334         6.23081        -0.50481
C          2.42907         5.67493        -1.31641
C          3.57774         7.66006        -0.09039
C          2.27477         8.35685        -0.14841
C          3.56153        10.56636         0.46634
C          2.22126         9.82645         0.14487
C          3.53993        12.01961         0.25805
C          2.34387        12.72986         0.08185
C          3.60976        14.90899         0.02567
C          2.34011        14.17949         0.03315
C          3.61052        16.29432         0.03665
C          2.33941        17.01318         0.39581
C          3.64594        19.20415         0.18014
C          2.39365        18.51450         0.20354
C          3.65940        20.62326         0.33564
C          2.42792        21.34750         0.35510
C          3.67610        23.43015         0.79026
C          2.44116        22.77113         0.50391
C          3.62992        24.82744         1.24009
C          2.42309        25.63664         0.95692
C          3.69338        27.74661         1.47048
C          2.43389        27.04416         1.11189
C          3.69389        29.27838         1.32278
C          2.40947        29.99037         1.02632
C          3.33375        32.21545         0.49602
C          2.34283        31.44676         1.06662
C          3.59253        33.60417         0.66532
C          2.48695        34.42812         1.32151
C          3.62478        36.38074         0.24556
C          2.40136        35.76173         0.62052
C          3.60798        37.75855        -0.14626
C          2.35223        38.43610        -0.24365
C          6.21955         3.53066        -1.26552
C          5.01769         4.36056        -1.62882
C          6.11357         6.18592        -0.18814
C          4.85867         5.48817        -0.61178
C          6.05741         7.59110         0.33147
C          4.76655         8.34958         0.23612
C          6.08208        10.48536         0.43572
C          4.82132         9.78143         0.38685
C          6.08729        11.97678         0.61073
C          4.79701        12.75560         0.45992
C          6.08386        14.82473        -0.02628
C          4.85937        14.18070         0.07812
C          6.11664        16.24437        -0.41437
C          4.81663        17.04643        -0.30186
C          6.09608        19.19673         0.02647
C          4.87634        18.50489        -0.02448
C          6.12251        20.58944         0.34471
C          4.90142        21.31252         0.46778
C          6.15714        23.41111         0.88041
C          4.89966        22.72169         0.75371
C          6.21198        24.81103         1.11801
C          4.99022        25.56284         1.46350
C          6.26548        27.71651         1.56138
C          4.98452        27.02519         1.42324
C          6.33538        29.20139         1.42143
C          5.04769        29.93919         1.17208
C          6.28652        32.00757         0.57481
C          5.23618        31.17681         0.39460
C          6.18118        33.52074         0.59558
C          4.82164        34.19955         0.37622
C          6.06316        36.30247        -0.11829
C          4.86372        35.64382         0.23110
C          6.05351        37.72124        -0.38658
C          4.82367        38.41771        -0.41033
C          8.63378         3.49138        -0.83678
C          7.39797         4.17665        -0.95668
C          8.63528         6.33732        -0.39478
C          7.37064         5.69581        -0.90684
C          8.62199         7.69062        -0.02691
C          7.37576         8.33139         0.57728
C          8.59062        10.50085         0.61424
C          7.29910         9.81661         0.35878
C          8.58961        12.01846         0.67324
C          7.33868        12.74666         0.42391
C          8.57759        14.88282         0.23742
C          7.33872        14.12400         0.20043
C          8.62707        16.27196         0.05204
C          7.40919        16.99631        -0.35741
C          8.64593        19.18279         0.18019
C          7.38951        18.50815        -0.20799
C          8.62740        20.56677         0.42026
C          7.37682        21.28012         0.48386
C          8.63036        23.37603         0.71403
C          7.37616        22.67850         0.69756
C          8.63552        24.80947         0.70335
C          7.43542        25.50120         0.94321
C          8.67193        27.66651         0.56184
C          7.53832        26.94935         1.19561
C          8.60209        29.10974         0.41349
C          7.55318        29.85501         0.87922
C          8.69313        32.02471         0.16053
C          7.60316        31.38123         0.99880
C          8.59638        33.45326        -0.18258
C          7.36128        34.17829        -0.06500
C          8.46695        36.27280        -0.71789
C          7.30908        35.57891        -0.30716
C          8.49026        37.70107        -0.78802
C          7.26789        38.40003        -0.64841
C         11.08047         3.49420        -0.68155
C          9.85497         4.18780        -0.70364
C         11.08346         6.33523        -0.47284
C          9.85425         5.63240        -0.54410
C         11.05551         7.73918        -0.27455
C          9.84984         8.41097         0.01857
C         11.07117        10.56788         0.28870
C          9.87829         9.83868         0.29829
C         11.06676        12.01921         0.46607
C          9.86976        12.71261         0.53429
C         11.13635        14.90356         0.53219
C          9.81730        14.17575         0.62133
C         11.11018        16.29716         0.03867
C          9.84236        17.03104         0.10907
C         11.12899        19.15907         0.35220
C          9.87102        18.44950         0.15116
C         11.10317        20.55703         0.61051
C          9.87664        21.26058         0.62498
C         11.09510        23.46067         0.84104
C          9.84583        22.68094         0.74106
C         11.08376        24.85928         0.37991
C          9.84887        25.52708         0.42341
C         10.95582        27.50214        -0.61522
C          9.78932        26.94370         0.17700
C         10.93642        29.02513        -0.69796
C          9.72311        29.79510        -0.26219
C         10.91469        31.87610        -0.95244
C          9.75252        31.27478        -0.26177
C         10.93835        33.37204        -1.05308
C          9.71683        34.10567        -0.69182
C         10.97327        36.23938        -1.04788
C          9.65912        35.50928        -1.21246
C         10.96662        37.66715        -0.99629
C          9.72855        38.37336        -0.95949
C         13.54486         3.47213        -0.49676
C         12.31637         4.17455        -0.56039
C         13.57096         6.27650        -0.44908
C         12.33206         5.60944        -0.52592
C         13.58700         7.73978        -0.68262
C         12.28812         8.51228        -0.49880
C         13.54892        10.57246         0.11603
C         12.34235         9.92288        -0.04539
C         13.56670        11.96318         0.61861
C         12.32517        12.74793         0.48650
C         13.64568        14.86638         0.47166
C         12.38970        14.12867         0.45690
C         13.66173        16.28575         0.40766
C         12.43643        17.04351         0.09196
C         13.62744        19.15488         0.55295
C         12.37886        18.47587         0.35094
C         13.63972        20.55914         0.69376
C         12.36684        21.22183         1.14560
C         13.62349        23.44507         0.53516
C         12.39616        22.74541         0.99026
C         13.58261        24.82143         0.20524
C         12.32018        25.54111         0.13168
C         13.49463        27.62018        -0.52090
C         12.29757        26.89911        -0.23671
C         13.44996        29.01639        -0.74907
C         12.22521        29.76484        -0.74934
C         13.42966        31.94531        -0.76520
C         12.19833        31.14577        -0.86316
C         13.43038        33.39916        -1.01773
C         12.22321        34.09892        -1.07898
C         13.45011        36.22841        -1.05970
C         12.19884        35.53191        -1.07332
C         13.43783        37.66639        -0.98203
C         12.20169        38.35548        -0.95712
C         15.98070         3.30887        -0.21884
C         14.76085         4.11601        -0.22651
C         15.98404         6.31433         0.04820
C         14.76658         5.56309        -0.15930
C         16.13781         7.71526        -0.41842
C         14.87889         8.50165        -0.61865
C         16.13463        10.61495         0.20073
C         14.85826         9.96190        -0.22712
C         16.14457        12.00219         0.46228
C         14.87548        12.71041         0.70444
C         16.11210        14.86861         0.60978
C         14.87292        14.17607         0.59284
C         16.11511        16.29570         0.60683
C         14.87726        16.99982         0.51949
C         16.09604        19.14778         0.57831
C         14.86765        18.43760         0.52304
C         16.08828        20.57586         0.54560
C         14.85027        21.27860         0.61279
C         16.05612        23.40907         0.24355
C         14.83946        22.72045         0.49465
C         16.01265        24.78677        -0.09580
C         14.79489        25.49784        -0.14855
C         15.96309        27.59602        -0.75137
C         14.77559        26.91645        -0.50122
C         15.99793        29.01550        -1.12361
C         14.67464        29.75120        -1.10673
C         15.97321        31.95014        -1.20417
C         14.74425        31.21285        -0.84876
C         15.91402        33.34934        -1.25468
C         14.68176        34.07835        -1.12114
C         15.91888        36.23660        -1.15458
C         14.67933        35.51481        -1.13960
C         15.89758        37.66143        -0.95483
C         14.66649        38.35412        -0.89335
C         18.45797         3.22967         0.51633
C         17.07213         3.64426         0.54342
C         18.37712         6.32013         0.78851
C         17.04968         5.77344         0.73892
C         18.52141         7.70815         0.57601
C         17.39386         8.45319        -0.01974
C         18.57610        10.56598         0.55120
C         17.35095         9.90915         0.22004
C         18.59332        11.99237         0.64434
C         17.36036        12.71456         0.59110
C         18.58384        14.85941         0.77345
C         17.35223        14.14843         0.67749
C         18.58428        16.29558         0.77235
C         17.34800        17.01427         0.67636
C         18.57459        19.16289         0.69291
C         17.34080        18.43714         0.64380
C         18.57026        20.59315         0.60178
C         17.32377        21.30090         0.49464
C         18.55340        23.42843         0.25990
C         17.31151        22.70449         0.32033
C         18.55125        24.82093        -0.02712
C         17.28423        25.43889        -0.45359
C         18.50336        27.70058        -0.54776
C         17.26872        26.91513        -0.75980
C         18.46370        29.12755        -0.69068
C         17.24104        29.80291        -0.98111
C         18.45785        31.92252        -1.22139
C         17.21818        31.20793        -1.19242
C         18.45689        33.33467        -1.66221
C         17.13373        34.10638        -1.62015
C         18.37239        36.28135        -1.27941
C         17.16202        35.57000        -1.37328
C         18.35047        37.66425        -0.86831
C         17.12107        38.34253        -0.77760
C         19.49551         4.04849         0.89247
C         20.73455         6.16434         1.28144
C         19.50526         5.49287         1.06385
C         20.83844         7.55027         1.23155
C         19.74010         8.36295         0.84742
C         20.97976        10.53966         0.95526
C         19.78716         9.82157         0.75820
C         21.00487        11.93198         0.96400
C         19.82276        12.69289         0.82788
C         21.01756        14.88639         0.96509
C         19.81817        14.14256         0.86145
C         21.01608        16.26931         0.96149
C         19.81135        17.01106         0.85536
C         21.00890        19.20928         0.87031
C         19.80681        18.45756         0.81151
C         21.00381        20.58652         0.78315
C         19.79508        21.31425         0.62906
C         20.97608        23.52634         0.45994
C         19.78812        22.75267         0.46837
C         20.95097        24.89191         0.24511
C         19.73756        25.57896        -0.02476
C         20.87800        27.81777        -0.07066
C         19.70225        27.03271        -0.23906
C         20.86524        29.18518        -0.23765
C         19.67239        29.88235        -0.56922
C         20.88444        32.06764        -0.82600
C         19.65970        31.29194        -0.85596
C         20.94077        33.37121        -1.19599
C         19.74900        34.09462        -1.64745
C         20.88156        36.38646        -1.07228
C         19.69150        35.66083        -1.50684
C         20.79462        37.68130        -0.60308
C         19.55792        38.33963        -0.54479
O         10.67743        32.51570        -2.25905
O          4.20037        25.00777         2.57153
O          5.35325        16.59545        -1.59876
O          6.08330         6.41619         1.24174
O         15.26466        29.33672        -2.37027
O         16.82281         4.63822         1.52272
O         12.81440         8.18852        -1.83525
O         14.20613        31.58540         0.46119
O          1.12733        32.92046         2.75879
O          4.17259        31.55728        -0.41845
O          5.73339        30.01076         2.47968
O         11.84547        16.56367        -1.18821
O          7.29599         6.20484        -2.24326
O         14.21377        12.16657         1.92812
O          1.16201         7.67055         0.53816
O         17.15450         7.99129        -1.42027
O          8.56384        11.20169         1.90252
O         17.35510        25.91983        -1.84836
O          2.62899        10.12572         1.50402
O          3.98298         5.21294         0.48953
O         11.78690        23.37884         2.17681
O          7.56647        17.85906        -1.52133
O          3.58132        28.64248         2.63412
O         19.91021        34.95913        -2.78679
O          5.35781        12.44973         1.79662
O         14.96553         9.52490        -1.63604
O          9.92953        29.40593        -1.69397
O         10.46474        14.75277         1.82394
O          7.21110        27.25607         2.59609
O         17.69811        33.61093        -2.87728
O          9.44243        35.35773        -2.67837
H          9.94523        34.56495        -2.97186
O          7.91130        31.66934         2.39586
H          7.25102        31.16017         2.92832
O          2.95986        34.73373         2.65929
H          2.62868        34.01514         3.24765
O         12.32200        20.93405         2.58108
H         11.90945        21.72675         3.00440
O          2.08919        16.78399         1.81295
H          2.81741        17.19000         2.32707
O          5.21939         4.93644        -2.94506
H          6.09919         5.47762        -2.90054
O          6.38481        33.85119         2.02431
H          7.11148        33.26437         2.36468
O         10.74867        27.00797        -1.97668
H         10.18941        27.67826        -2.43554
O          1.36115        16.62507        -1.76482
H          0.62538        16.20355        -2.25485
O          7.64120         8.24970         2.01472
H          7.20648         7.42500         2.33729
H          1.45327         2.70793        -2.82117
H         -0.65089         4.01806        -3.12071
H         -0.77802         6.35994        -2.32745
H         -0.59675         8.30143        -2.23594
H         -0.63748        10.64849        -1.67188
H         -1.03787        12.26309        -0.53085
H         -1.00778        14.70660        -0.50470
H         -1.06665        16.59529         0.10025
H         -0.99178        18.98218         0.53536
H         -0.97460        20.90650         0.06973
H         -0.94083        23.33331         0.22641
H         -0.86180        25.24577         0.03970
H         -0.86072        27.64894         0.35580
H         -0.97384        29.43783         0.97695
H         -1.09543        31.80158         1.45208
H         -1.04732        33.97640         1.47108
H         -1.00218        36.28434         0.66016
H          0.21041        38.30210        -0.08086
H          3.77113         2.63363        -2.31788
H          2.34207        39.49130        -0.55294
H          6.18054         2.43262        -1.34598
H          4.81677        39.48821        -0.66455
H          8.65180         2.39515        -0.94422
H          7.25305        39.49291        -0.77594
H         11.07803         2.39562        -0.74807
H          9.74216        39.47316        -0.97029
H         13.53106         2.37633        -0.59393
H         12.20416        39.45438        -0.90382
H         16.01452         2.43119        -0.88149
H         14.67079        39.44698        -0.77193
H         18.69405         2.20335         0.19476
H         17.11321        39.41421        -0.53150
H         20.49787         3.58867         0.90839
H         21.63288         5.56933         1.50360
H         21.81147         8.01311         1.44758
H         21.92408         9.99747         1.10224
H         21.97076        12.43325         1.11141
H         21.98158        14.36566         1.03897
H         21.97938        16.79066         1.03603
H         21.97403        18.69696         0.97708
H         21.96354        21.11854         0.82322
H         21.94787        23.04243         0.62567
H         21.90459        25.43578         0.25236
H         21.82825        27.33453         0.19054
H         21.80846        29.73276        -0.11337
H         21.81726        31.57564        -0.52137
H         21.90946        33.88893        -1.21311
H         21.86619        35.92495        -1.22370
H         21.70957        38.21930        -0.31835
H         19.50917        39.38952        -0.22448
