         661
 CSIRO Nanostructure Databank - Neutral Graphene Oxide Data Set
C          6.03743        31.83989         1.36344
C          5.96156        33.15087         1.05571
C          8.44707        27.53289         1.20313
C          8.44119        28.90917         1.04940
C          7.24635        29.68717         1.26503
C          8.40565        31.74766         0.57958
C          7.22394        31.04804         1.07298
C          8.34796        33.08874         0.27553
C          7.04057        33.84627         0.27114
C          8.40270        35.98464         0.39365
C          7.21494        35.28693         0.65667
C          8.49870        37.39800         0.59484
C         10.87945        23.13241         1.22239
C         10.93122        24.62132         1.51177
C          9.65327        25.39058         1.31370
C         10.90045        27.47206         0.83311
C          9.65915        26.75592         1.11698
C         10.88295        28.86416         0.58904
C          9.65964        29.61251         0.68912
C         10.85265        31.68326         0.07422
C          9.64060        30.99078         0.43501
C         10.83212        33.09051        -0.18692
C          9.50973        33.79671        -0.37113
C         10.74609        35.98439        -0.36173
C          9.57154        35.27536        -0.04942
C         10.72429        37.40381        -0.40832
C          9.62726        38.12654         0.16653
C         10.77756        40.32850        -0.19438
C          9.72403        39.54435         0.33749
C         10.82846        41.70902        -0.10295
C         13.33927        18.84896         0.65289
C         13.27576        20.25519         0.72912
C         12.07106        20.96652         0.84532
C         13.23580        23.14297         0.52617
C         12.00800        22.40672         0.91822
C         13.27967        24.60925         0.64796
C         12.11968        25.32794         0.90056
C         13.32707        27.41411         0.32906
C         12.11903        26.74458         0.72913
C         13.28887        28.81603         0.08133
C         12.09582        29.54574         0.23828
C         13.29397        31.68563        -0.22580
C         12.07313        30.97228         0.01761
C         13.27580        33.09603        -0.39873
C         12.01656        33.79614        -0.39255
C         13.17965        35.93939        -0.67137
C         11.99690        35.25023        -0.54778
C         13.18116        37.39014        -0.95749
C         11.87399        38.14282        -0.95226
C         13.14617        40.38362        -1.02216
C         11.80347        39.66602        -1.09638
C         13.14942        41.75121        -0.99848
C         11.82928        42.50142        -0.92400
C         13.21905        44.59038        -0.55221
C         12.02146        43.90632        -0.42057
C         13.31064        45.96324        -0.17765
C         15.84055        14.60079         0.35831
C         15.81533        16.00677         0.32987
C         14.60645        16.73955         0.52016
C         15.81827        18.87669         0.34954
C         14.57184        18.14252         0.52545
C         15.81850        20.27019         0.40434
C         14.58648        20.99453         0.89699
C         15.78913        23.17296         0.46173
C         14.52514        22.40861         0.37346
C         15.76819        24.55147         0.52110
C         14.52477        25.28782         0.45430
C         15.83891        27.25160        -0.29268
C         14.54341        26.67480         0.25606
C         15.81095        28.77362        -0.42878
C         14.51896        29.52462        -0.32694
C         15.74620        31.70834        -0.35497
C         14.53982        31.00456        -0.25245
C         15.73847        33.11582        -0.52555
C         14.50629        33.77951        -0.60490
C         15.72026        35.98016        -1.06676
C         14.44843        35.22093        -0.90647
C         15.74259        37.44411        -0.77262
C         14.43228        38.16352        -0.68925
C         15.70073        40.32212        -1.18703
C         14.42659        39.65184        -0.82765
C         15.60655        41.75484        -1.49117
C         14.38859        42.49769        -1.12298
C         15.67219        44.60941        -1.09762
C         14.42226        43.88111        -1.02017
C         15.58028        46.12397        -1.22989
C         14.45204        46.76083        -0.44253
C         15.65512        48.99128        -0.55145
C         14.47523        48.11760        -0.17902
C         15.68900        50.30101         0.27753
C         18.29758        10.31084         0.18618
C         18.20680        11.68369        -0.08861
C         17.05730        12.44554         0.19310
C         18.22163        14.59218        -0.21686
C         17.02770        13.86915         0.08751
C         18.24735        16.00435        -0.15906
C         17.04181        16.72810         0.09939
C         18.26395        18.84702        -0.09934
C         17.04516        18.14753         0.10919
C         18.26113        20.30877        -0.05022
C         17.01681        21.02832         0.20492
C         18.25008        23.19869         0.32869
C         17.01945        22.43725         0.35125
C         18.27603        24.53476         0.66221
C         17.00346        25.30163         0.95213
C         18.22888        27.44430         0.44613
C         17.07186        26.71930         0.40749
C         18.22495        28.86960         0.09049
C         17.06567        29.52099        -0.20011
C         18.28769        31.66320        -0.62130
C         17.04977        31.02179        -0.02747
C         18.19821        33.05388        -1.20097
C         17.07622        33.85185        -0.48512
C         18.16316        35.98470        -1.23907
C         17.03434        35.29382        -0.95133
C         18.14514        37.44854        -1.68479
C         16.99711        38.20292        -1.04091
C         18.17920        40.36773        -1.44865
C         16.91384        39.66593        -1.27386
C         18.19734        41.76368        -1.40394
C         16.94151        42.52572        -1.53229
C         18.16761        44.59074        -0.72995
C         16.88241        43.95244        -1.20119
C         18.21049        46.08881        -0.94957
C         16.92004        46.83418        -1.02514
C         18.21682        48.95560        -0.61942
C         16.93215        48.17541        -0.30265
C         18.20442        50.33313        -0.01460
C         17.03149        51.02342         0.21209
C         18.22906        53.17825         0.52299
C         17.05732        52.42403         0.52432
C         18.25604        54.52248         1.01383
C         20.69400         6.04238         0.66239
C         20.68429         7.33666        -0.03736
C         19.50258         8.17098         0.19849
C         20.68799        10.16843        -0.54847
C         19.47578         9.53182        -0.06243
C         20.64179        11.60023        -0.90276
C         19.35455        12.35611        -0.73927
C         20.71508        14.57773        -0.71893
C         19.40685        13.87382        -0.71791
C         20.72078        15.98254        -0.61170
C         19.47221        16.71554        -0.41103
C         20.71077        18.87111        -0.74545
C         19.45854        18.11670        -0.36273
C         20.71181        20.23566        -0.09785
C         19.44384        21.00496        -0.15855
C         20.73302        23.07929         0.45802
C         19.49341        22.50963        -0.18580
C         20.81653        24.57903         0.48107
C         19.53684        25.28306         0.90867
C         20.76781        27.57083         0.60513
C         19.51104        26.81718         0.89763
C         20.69952        28.86055        -0.10560
C         19.49036        29.68442         0.27752
C         20.75798        31.72374        -0.60323
C         19.47581        31.03042        -0.42677
C         20.68551        33.18150        -0.77990
C         19.51335        33.80828        -1.08763
C         20.64799        36.05550        -1.02689
C         19.45051        35.25848        -1.54883
C         20.68393        37.51553        -1.40697
C         19.45655        38.20904        -1.47962
C         20.67655        40.35210        -1.43403
C         19.42944        39.62331        -1.46329
C         20.67486        41.75292        -1.41412
C         19.44399        42.49609        -1.33204
C         20.70385        44.68608        -1.07687
C         19.42491        43.88259        -1.15172
C         20.59657        45.91966        -0.18212
C         19.40709        46.78188        -0.38098
C         20.62919        48.83668         0.32113
C         19.43333        48.13406        -0.20460
C         20.74594        50.29750         0.17614
C         19.49753        51.04443        -0.11642
C         20.79114        53.19324         0.37229
C         19.48582        52.53653         0.06589
C         20.73835        54.58087         0.94633
C         19.43639        55.24079         1.23040
C         20.67503        57.29450         1.88743
C         19.47110        56.59675         1.64774
C         20.74284        58.68655         2.08046
C         22.89288         3.60254         2.33632
C         21.77349         4.14286         1.74518
C         23.17984         5.95180         0.71601
C         21.83827         5.38309         1.01552
C         23.31159         7.27354        -0.03067
C         22.01788         8.00583        -0.45289
C         23.05992        10.27833        -0.99628
C         21.89618         9.49091        -0.67275
C         23.19800        11.62162        -0.71421
C         21.95704        12.39322        -0.87509
C         23.17453        14.52477        -0.54225
C         21.94548        13.86188        -0.69764
C         23.20689        15.94403        -0.53593
C         21.97682        16.67050        -0.62604
C         23.22178        18.75649        -0.47522
C         22.00492        18.09800        -0.56154
C         23.31514        20.13324         0.13650
C         22.00178        20.91466         0.19042
C         23.29310        23.15644         0.13235
C         21.99538        22.41471         0.12731
C         23.29884        24.51184         0.73792
C         22.10071        24.99754         1.15222
C         23.26847        27.64291         0.47787
C         22.01260        27.15048         0.99560
C         23.28213        28.90627        -0.10488
C         21.99491        29.57685        -0.41227
C         23.28606        31.77703        -0.41699
C         21.96039        31.05080        -0.53822
C         23.18135        33.18062        -0.96621
C         21.96991        33.96971        -0.53726
C         23.20343        36.05984        -1.28212
C         21.92240        35.26936        -1.37393
C         23.18768        37.49257        -1.20670
C         21.92203        38.20481        -1.30718
C         23.17101        40.31193        -1.19197
C         21.93328        39.62656        -1.35709
C         23.20306        41.73315        -1.15570
C         21.96793        42.52999        -1.49987
C         23.16412        44.55787        -0.56515
C         21.86967        43.77814        -0.61090
C         23.16894        45.92222        -0.24116
C         21.90177        46.57170         0.17759
C         23.20155        48.74891         0.42869
C         21.92084        48.03130         0.49490
C         23.17999        50.16881         0.95835
C         21.93957        50.95505         0.51141
C         23.20934        53.03996         0.98643
C         21.99385        52.36899         0.60540
C         23.21217        54.35992         1.41507
C         21.94878        55.06716         1.65644
C         23.21738        57.25078         2.03177
C         21.93875        56.53375         2.03049
C         23.22850        58.62250         2.16002
C         21.97585        59.35909         2.26565
C         23.26624        61.41709         2.56266
C         22.03612        60.75518         2.46320
C         24.12892         4.29242         2.31343
C         25.48056         6.23005         1.72213
C         24.29154         5.48040         1.59447
C         25.62047         7.50785         1.15900
C         24.56954         8.03082         0.28747
C         25.71951        10.24295         0.32939
C         24.85397         9.21001        -0.33001
C         25.83448        11.59735        -0.37848
C         24.52599        12.32024        -0.65752
C         25.68213        14.51870        -0.00405
C         24.39045        13.74127        -0.08349
C         25.68958        15.91320        -0.12780
C         24.46232        16.63405        -0.41304
C         25.72232        18.76216        -0.39876
C         24.47648        18.04544        -0.43567
C         25.73181        20.22026        -0.64692
C         24.42181        20.98924        -0.49125
C         25.82216        23.08764         0.22813
C         24.53333        22.29683         0.38292
C         25.82183        24.57002         0.45247
C         24.55047        25.31810         0.80843
C         25.77422        27.48173         0.12226
C         24.52245        26.83583         0.61206
C         25.77671        28.88773        -0.07936
C         24.52551        29.61437        -0.29962
C         25.83054        31.64119        -0.71075
C         24.54713        30.95144        -0.69549
C         26.04145        32.85448        -1.31216
C         24.15780        33.88897        -1.59781
C         25.72219        35.92571        -1.46536
C         24.35193        35.32507        -1.46144
C         25.71722        37.45058        -1.20847
C         24.40727        38.15931        -1.07943
C         25.59120        40.27256        -0.69377
C         24.39828        39.58977        -0.96781
C         25.62901        41.69173        -0.75107
C         24.39577        42.41864        -0.94022
C         25.59866        44.56604        -0.69792
C         24.39184        43.86733        -0.76960
C         25.61622        45.98719        -0.48964
C         24.37165        46.67473        -0.23513
C         25.70479        48.74562         0.36573
C         24.36370        48.08174         0.11072
C         25.68146        50.25502         0.41906
C         24.46763        50.92651         0.70804
C         25.70620        53.02455         1.01376
C         24.46917        52.31014         0.90413
C         25.72429        54.37635         1.42637
C         24.46270        55.03180         1.93062
C         25.74892        57.21661         1.92314
C         24.45532        56.52143         1.55173
C         25.71033        58.61135         2.17545
C         24.50146        59.33059         2.23985
C         24.47512        60.73150         2.45507
C         26.82982         8.24277         1.29113
C         28.14385        10.31487         0.99775
C         26.98085         9.56738         0.82318
C         28.21929        11.69453         0.66780
C         27.13024        12.40842        -0.13206
C         28.15046        14.54679         0.61786
C         26.86093        13.76011         0.57041
C         28.09099        16.00385         0.62901
C         26.89187        16.67992         0.09095
C         28.24629        18.77054        -0.20814
C         26.92703        18.06678        -0.14526
C         28.31214        20.25657        -0.49757
C         27.02442        21.00668        -0.64973
C         28.24360        23.14413        -0.21948
C         27.02677        22.44271        -0.32613
C         28.24898        24.56728        -0.12960
C         26.93523        25.29394        -0.27837
C         28.22256        27.44772        -0.06318
C         26.98065        26.76988         0.01556
C         28.22570        28.87108        -0.00726
C         27.00287        29.57074        -0.06192
C         28.27554        31.74600        -0.21215
C         26.96468        31.07033         0.09187
C         28.31367        33.11497        -0.53856
C         27.10143        33.79496        -0.98697
C         28.23103        36.00434        -0.98254
C         26.98331        35.17586        -1.11527
C         28.15186        37.45587        -0.60877
C         26.93823        38.11403        -0.67921
C         28.05049        40.30536        -0.13857
C         26.76350        39.52205        -0.11468
C         28.09497        41.67276        -0.40666
C         26.86240        42.37209        -0.69388
C         28.15392        44.55950        -0.92282
C         26.85626        43.82418        -0.92457
C         28.14861        46.00485        -0.46560
C         26.82526        46.69367        -0.56624
C         28.10697        48.93281        -0.61276
C         26.80955        48.16536        -0.49820
C         28.12541        50.37014        -0.19627
C         26.88519        50.97670         0.34305
C         28.16997        53.04884         0.89849
C         26.93108        52.34861         0.72751
C         28.15538        54.38806         1.25465
C         26.93569        55.08725         1.50367
C         26.92909        56.48819         1.84965
C         29.33018        12.44246         1.01609
C         30.59438        14.59765         0.96721
C         29.36215        13.88343         0.86467
C         30.66880        15.99867         0.84860
C         29.40165        16.76188         0.79521
C         30.66226        18.86020         0.40228
C         29.46871        18.16642         0.35275
C         30.71025        20.30449         0.19840
C         29.52132        21.01117        -0.12079
C         30.70836        23.14709         0.02424
C         29.49684        22.42015        -0.13238
C         30.70721        24.57399        -0.03325
C         29.45980        25.28487        -0.09523
C         30.69796        27.42580        -0.08102
C         29.46460        26.72116        -0.09306
C         30.69000        28.86425        -0.02446
C         29.47418        29.58316         0.01305
C         30.71721        31.72213         0.03841
C         29.47812        31.01635        -0.04342
C         30.69134        33.15350        -0.03786
C         29.53797        33.82498        -0.44328
C         30.71441        36.05292        -0.21029
C         29.54352        35.28581        -0.70486
C         30.58239        37.46727         0.00370
C         29.36098        38.12880        -0.14134
C         30.52059        40.35090         0.27815
C         29.24185        39.55999         0.39259
C         30.54850        41.70952         0.03233
C         29.34940        42.41783        -0.32925
C         30.59173        44.54284        -0.60749
C         29.40229        43.81351        -0.61001
C         30.66351        45.96753        -0.97473
C         29.34198        46.78034        -1.01537
C         30.61511        48.86396        -0.45655
C         29.38196        48.21630        -0.74598
C         30.65800        50.19290        -0.02884
C         29.45624        51.03984         0.03305
C         29.49839        52.31843         0.84646
C         31.87509        16.71775         0.79916
C         33.10393        18.85482         0.78411
C         31.91426        18.14957         0.69227
C         33.13310        20.35109         0.95510
C         31.90237        21.02941         0.40857
C         33.16789        23.15660         0.21563
C         31.92514        22.43363         0.23842
C         33.16377        24.53290         0.00103
C         31.93831        25.28004        -0.06415
C         33.16676        27.44745        -0.26909
C         31.93964        26.71208        -0.13674
C         33.15426        28.83660        -0.15816
C         31.93131        29.57943         0.00958
C         33.22149        31.67463         0.52001
C         31.92797        30.98989         0.14037
C         33.20115        33.20133         0.46740
C         31.89883        33.92884         0.28005
C         33.13562        36.08682         0.35893
C         31.90741        35.39020         0.07406
C         33.11445        37.47319         0.47661
C         31.79254        38.15136         0.54314
C         33.04517        40.37246         0.61837
C         31.75302        39.66425         0.67936
C         33.12632        41.69104         0.19908
C         31.84029        42.44404         0.14794
C         33.09462        44.50991        -0.82158
C         31.85583        43.89612        -0.21112
C         33.21025        45.98874        -0.42035
C         31.89688        46.73041        -0.64465
C         31.84292        48.07315        -0.43618
C         34.40101        21.04769         0.52798
C         35.66285        23.12260         0.09825
C         34.42682        22.40505         0.27150
C         35.70759        24.50373        -0.12880
C         34.42320        25.21448        -0.36537
C         35.77836        27.44649        -0.72012
C         34.41852        26.69892        -0.61430
C         35.66589        28.83710        -0.11395
C         34.40357        29.59772        -0.40644
C         35.70667        31.79114        -0.05125
C         34.39971        31.07094        -0.20051
C         35.68872        33.24794         0.22597
C         34.44869        33.95369         0.24444
C         35.62113        36.08823         0.50436
C         34.42203        35.38527         0.39068
C         35.67283        37.53294         0.97090
C         34.31236        38.21550         0.76360
C         36.02009        40.56952         0.32650
C         34.18800        39.57370         0.97883
C         35.62886        41.65577        -0.39475
C         34.36408        42.38545        -0.18588
C         34.33940        43.70022        -0.58210
C         36.91409        25.23684        -0.11549
C         38.13068        27.33922         0.18294
C         36.96757        26.66478        -0.14001
C         38.22596        28.81139         0.53450
C         36.89546        29.53899         0.33587
C         38.20875        31.73266         0.48011
C         36.96064        31.02302         0.17992
C         38.16941        33.21122         0.76783
C         36.89371        33.91395         0.35552
C         38.17239        36.09377         0.34609
C         36.88142        35.38234         0.06350
C         38.14675        37.46336         0.34614
C         36.92836        38.25109         0.40462
C         37.04923        39.58249         0.07189
C         39.39534        29.63100         0.04055
C         40.62699        31.81481         0.07297
C         39.40950        31.02306         0.23051
C         40.61514        33.17815         0.11296
C         39.41132        33.95121         0.32567
C         39.39301        35.32560         0.26947
O         25.90992        36.88359        -2.55265
O         29.98178        46.31386        -2.22379
O         23.52330         6.00947        -0.71400
O         22.08855        26.13031         1.95432
O         34.23665        30.52351        -1.53476
O         27.15037        48.79130        -1.76277
O         29.17474        35.68967        -2.07099
O         31.59064        38.79648         1.86739
O         25.38957        11.87114        -1.74668
O         16.20500        42.16870        -2.75204
O         28.52815        19.29296        -1.56643
O         36.57048        31.47872        -1.19648
O         35.93695        29.01092         1.32895
O         27.54959        44.25520        -2.19659
O         25.15788        33.23496        -2.31698
O         17.75981        46.66608        -2.20930
O         21.09176        48.36715         1.65535
O         21.17456        28.91039        -1.47065
O         32.43825        33.67368         1.64605
O         34.26280        25.77594        -1.72438
O         21.20185        20.35899         1.29503
O         21.78541        55.45693         3.06589
O         28.51859        16.56914         1.95463
O         26.37147        20.62579        -1.91564
O         19.03474        13.11700        -1.93527
O         35.28207        40.27078         1.49826
O         24.16055         9.55660        -1.47061
O         16.66790        37.76520         0.31620
O         14.37424        38.98920         0.51536
O         13.72568        22.65729        -0.80447
O         19.49860        26.05440         2.15284
O         24.73465        26.20495         1.93772
O         12.46145        37.63274        -2.21256
O         21.21838         7.27765        -1.41277
O         19.49960        51.95825        -1.28815
O         22.60913        23.02029        -1.14514
O         21.30358        11.96918        -2.13590
O         31.88631        43.50987         1.19646
O         26.24642        23.72220         1.54175
O         28.75532        51.20751        -1.23869
O         21.02458        54.38543        -0.47401
O         15.08337        29.12832        -1.66089
O         21.12049        45.79796         1.17065
O         36.15682        27.62116        -2.04902
O         14.99058        35.58562        -2.26560
O         34.25015        46.55538        -1.22561
H         34.20791        47.53129        -1.15921
O         19.44304        35.23617        -3.00995
H         18.80866        34.51649        -3.25943
O         15.21176        46.32007        -2.61995
H         16.04016        46.25652        -3.14803
O         16.91803        47.88745         1.11573
H         17.70075        47.33814         1.34036
O         22.07898        34.22332         0.88379
H         21.26517        34.71918         1.15415
O          9.23922        33.76379        -1.81975
H          8.28176        33.99739        -1.92643
O         33.07241        20.54505         2.42979
H         32.23495        20.13908         2.74121
O         23.45997        31.95402         1.04486
H         22.88669        32.71629         1.32189
O          6.57174        33.85379        -1.15008
H          6.27202        32.94156        -1.35512
O         28.99883        39.39453         1.84796
H         29.85740        39.07106         2.23283
O         33.46434        31.32742         1.91471
H         32.93076        31.95373         2.45764
O         16.87452        25.42460         2.40792
H         17.75817        25.72662         2.73864
O         19.63415        29.95402         1.69702
H         18.79820        30.41052         1.97257
O         15.95696        26.71250        -1.64348
H         15.45441        27.32453        -2.23146
O         21.85416        34.80185        -2.74038
H         21.78355        35.57710        -3.33517
O         24.36162        56.56083         0.09511
H         24.45099        57.49406        -0.19130
O         11.16981        24.68378         2.97733
H         12.05306        24.29076         3.14748
O         18.27073        49.18475        -2.05794
H         18.83355        49.97356        -2.22391
O         17.18533        31.22035         1.43785
H         17.28970        32.19997         1.56734
O         17.47711        33.89747         0.92592
H         17.01960        34.65072         1.35653
O         24.46045        21.95219         1.77822
H         24.96948        22.63904         2.27311
O         38.17189        33.30124         2.25045
H         39.01700        32.91522         2.56642
O         14.64356        51.14920        -0.19009
H         14.58623        50.99998        -1.16196
O         21.57400        43.25638         0.70240
H         21.49464        44.03079         1.31340
O         24.02440        13.39957         1.31797
H         23.99982        14.23796         1.82702
O         38.42522        28.75309         1.99045
H         37.53109        28.61082         2.38301
O         36.80593        35.46309        -1.43209
H         36.18735        34.76464        -1.73980
O         20.99381        45.25699        -2.37457
H         21.26717        44.52213        -2.97619
O         27.73176        12.69870        -1.40641
H         27.03122        12.59610        -2.09426
O         24.98168        10.57924         1.56549
H         25.33489        11.43433         1.90804
O         26.38629        39.31952         1.29553
H         27.22965        39.25686         1.81469
O         26.08928        48.30934         1.71869
H         25.41719        48.66369         2.34273
O         26.54822        25.19951        -1.69404
H         27.24947        25.62584        -2.23122
O         17.83041        32.98363        -2.60903
H         18.29838        32.22116        -3.01062
O         26.70235        31.34060         1.50826
H         25.74377        31.18249         1.66238
O         22.13660        42.94232        -2.89368
H         22.17275        42.13375        -3.44701
O         17.88101        37.46613        -3.10988
H         18.48294        36.79466        -3.51577
O         24.47146        54.91326         3.37771
H         23.54885        55.09231         3.68651
O         23.68530        19.75728         1.48555
H         22.85781        19.75700         2.01996
O         15.54696        49.35048        -1.94380
H         16.45618        49.33509        -2.33597
O         19.55741        22.84361        -1.61551
H         19.78192        23.80503        -1.68074
O         29.88581        51.95891         2.18294
H         29.77109        52.74155         2.76021
O         28.41003        45.93814         0.98903
H         27.79248        46.54747         1.45254
O         20.96793        25.05978        -0.92149
H         21.67131        24.48446        -1.33545
O         18.13433        44.48861         0.74813
H         18.42574        43.58600         1.00029
O         20.43779        36.10622         0.42350
H         20.93546        36.87265         0.78022
O         32.87643        44.48248        -2.25574
H         33.47771        45.15769        -2.64230
O         11.26879        42.62461        -2.26625
H         11.15697        41.70186        -2.61199
O         35.90308        37.48375         2.41166
H         35.85507        38.40918         2.73820
O         20.60684        19.14690        -2.17426
H         20.57933        18.29127        -2.65137
O         23.09192        50.04758         2.41458
H         22.29117        49.49438         2.59510
O         14.77387        21.15022         2.34428
H         14.87946        20.25513         2.73039
O         11.28970        39.89196        -2.44865
H         11.73338        39.23500        -3.03501
O         26.54817        13.40858         1.96317
H         26.61141        14.22823         2.49887
O         23.98413        21.27165        -1.81929
H         24.78253        21.33044        -2.39636
H          5.19843        31.33945         1.87104
H          5.05317        33.72487         1.29348
H          7.51016        27.01398         1.45726
H          6.33832        29.17012         1.61112
H          6.33673        35.83920         1.02361
H          7.63720        37.93539         1.01674
H          9.95275        22.60167         1.49412
H          8.70042        24.87844         1.51957
H          8.91654        40.05545         0.88376
H         10.05204        42.24971         0.46049
H         12.40382        18.26784         0.66188
H         11.12733        20.40083         0.90394
H         11.13177        44.45087        -0.06667
H         12.42822        46.43887         0.27903
H         14.91224        14.04983         0.56934
H         13.66867        16.18045         0.65972
H         13.60578        48.58605         0.30988
H         15.48492        50.06143         1.35596
H         17.42038         9.79672         0.60687
H         16.16261        11.93218         0.57572
H         16.10791        52.90266         0.80527
H         17.29472        54.99530         1.26634
H         19.71960         5.61908         0.95288
H         18.62972         7.69564         0.67167
H         18.52016        57.14626         1.72109
H         19.81497        59.27776         2.05667
H         22.81619         2.66113         2.89776
H         20.79696         3.64755         1.84567
H         23.27750        62.50446         2.72289
H         21.10079        61.32851         2.53513
H         24.96902         3.91238         2.91288
H         26.29615         5.82331         2.33924
H         26.65706        59.14743         2.34547
H         25.42531        61.27883         2.53501
H         27.68542         7.75644         1.78413
H         29.00933         9.85072         1.49705
H         29.10863        54.92646         1.37683
H         27.89308        56.99726         2.00551
H         30.19839        11.94458         1.47512
H         31.52516        14.02217         1.08016
H         31.61150        50.61289         0.32391
H         30.28219        53.00744         0.41244
H         32.82670        16.17295         0.89344
H         34.03743        18.30083         0.97175
H         33.49303        46.06615         0.67067
H         32.76469        48.60905        -0.15419
H         35.34584        20.48355         0.56759
H         36.60740        22.57259         0.23274
H         36.24641        41.97860        -1.24614
H         35.27739        44.15552        -0.93645
H         37.86295        24.68083        -0.04009
H         38.96772        26.73330         0.57478
H         39.09986        38.01745         0.33643
H         37.99181        39.91662        -0.39260
H         40.32337        29.11655        -0.24963
H         41.56860        31.28195        -0.12351
H         41.55020        33.73094        -0.06705
H         40.33823        35.87211         0.11634
