         671
 CSIRO Nanostructure Databank - Neutral Graphene Oxide Data Set
C          5.93321        31.76713        -0.55703
C          5.91106        33.13374        -0.46545
C          8.30955        27.47485        -0.04651
C          8.34360        28.84459        -0.07695
C          7.16191        29.61941        -0.43074
C          8.27119        31.71487         0.35565
C          7.11630        30.97623        -0.28390
C          8.40018        33.11112        -0.29644
C          7.11265        33.90622        -0.24147
C          8.39841        36.02306        -0.03029
C          7.14696        35.27250        -0.11571
C          8.42281        37.45625         0.06051
C         10.73814        23.19239        -0.57975
C         10.71113        24.58682        -0.21829
C          9.55468        25.30888        -0.23624
C         10.79100        27.40119         0.34476
C          9.47828        26.65723         0.42191
C         10.80600        28.81790         0.35237
C          9.58401        29.55520         0.20814
C         10.81497        31.64409         0.44334
C          9.59443        30.96169         0.28908
C         10.80401        33.11820         0.57653
C          9.55470        33.87893         0.28905
C         10.92151        36.01705        -0.13193
C          9.59880        35.32892         0.03285
C         10.90147        37.46865         0.28634
C          9.60734        38.16265         0.31158
C         10.78518        40.28759         0.79016
C          9.61221        39.57437         0.48283
C         10.83775        41.68727         0.73024
C         13.24401        18.95419        -0.68565
C         13.21207        20.36835        -0.72669
C         11.98959        21.05819        -0.70656
C         13.19755        23.22224        -0.73768
C         11.92541        22.47289        -0.65938
C         13.22169        24.65701        -0.20243
C         11.95240        25.16918         0.44536
C         13.21902        27.34099         0.68454
C         11.99437        26.68542         0.46335
C         13.25801        28.76600         0.75249
C         12.04413        29.50057         0.54747
C         13.27226        31.60498         0.84677
C         12.04993        30.92766         0.58796
C         13.31418        33.07650         0.67076
C         12.07052        33.87488         0.57528
C         13.30287        36.01254         0.79376
C         12.08315        35.23568         0.45976
C         13.39527        37.45663         0.34197
C         12.06630        38.14646         0.48654
C         13.30005        40.35062         0.85408
C         12.03252        39.50354         1.15977
C         13.20850        41.72726         1.57925
C         12.03244        42.44403         0.92445
C         13.29524        44.55609         0.59449
C         12.08448        43.77498         0.56700
C         13.27962        45.85682         0.10760
C         15.75449        14.73666        -0.53862
C         15.68070        16.11032        -0.42278
C         14.46525        16.82733        -0.61461
C         15.73981        18.93308        -1.00375
C         14.44181        18.22261        -0.70650
C         15.70439        20.41566        -0.76940
C         14.47701        21.11248        -0.74426
C         15.70842        23.33698        -0.96531
C         14.46096        22.51481        -0.77052
C         15.69914        24.64624        -0.16780
C         14.50308        25.23976         0.20242
C         15.74592        27.31111         0.88405
C         14.46194        26.52115         1.00429
C         15.71214        28.69562         1.48887
C         14.46392        29.47090         1.06793
C         15.69589        31.59281         1.55269
C         14.45607        30.87323         1.13054
C         15.75312        33.08214         1.44534
C         14.58841        33.80531         0.86559
C         15.88577        35.99704         0.77571
C         14.57146        35.28903         1.05828
C         15.80305        37.46409         1.11513
C         14.59520        38.17538         0.93342
C         15.77029        40.27978         1.35385
C         14.56241        39.57059         1.12788
C         15.79824        41.73485         1.29952
C         14.55185        42.54381         1.61514
C         15.75474        44.55684         0.76213
C         14.54284        43.90209         0.93981
C         15.76583        46.02353         0.59615
C         14.44770        46.72053         0.21914
C         15.75465        48.70263        -0.62458
C         14.52932        48.02776        -0.43247
C         15.78131        50.06768        -1.02550
C         18.32413        10.54001        -0.68915
C         18.21853        11.84472         0.04601
C         16.99428        12.63375        -0.31934
C         18.18250        14.76343         0.04560
C         16.96568        14.00402        -0.25722
C         18.16936        16.14906         0.06934
C         16.85544        16.88451         0.14045
C         18.15037        18.98010        -0.35809
C         16.94616        18.28911        -0.37697
C         18.16523        20.38236        -0.65049
C         16.95325        21.12130        -0.74033
C         18.19749        23.25306        -0.59574
C         16.96769        22.54550        -0.73560
C         18.17865        24.69008        -0.30274
C         16.94375        25.32553         0.02833
C         18.19507        27.41425         0.57923
C         16.93432        26.69890         0.49614
C         18.20747        28.78455         0.99756
C         16.99841        29.46616         1.29343
C         18.19146        31.58152         1.69061
C         17.00663        30.87780         1.53355
C         18.17804        33.06653         2.03641
C         17.09447        33.76134         1.20926
C         18.19535        35.95165         1.73872
C         17.04953        35.26479         1.39890
C         18.22933        37.39622         1.69348
C         17.00095        38.14410         1.44889
C         18.24591        40.31633         1.74518
C         16.97468        39.55966         1.48124
C         18.26697        41.70491         1.12335
C         17.00081        42.41018         1.08617
C         18.20511        44.43295         0.36667
C         17.01710        43.82696         0.76131
C         18.28285        45.89320         0.12033
C         17.04082        46.71444         0.23052
C         18.24079        48.65254        -0.77645
C         17.00646        48.02946        -0.42945
C         18.24539        50.04741        -1.08951
C         16.99870        50.76891        -1.16304
C         18.24252        52.87897        -1.43948
C         17.02122        52.16843        -1.36543
C         18.26600        54.29907        -1.50363
C         20.81236         6.63470        -2.22664
C         20.86822         8.05149        -1.94120
C         19.65290         8.67009        -1.57121
C         20.76605        10.76827        -0.89917
C         19.54933         9.99919        -1.06378
C         20.73532        12.03255        -0.29478
C         19.47736        12.66420        -0.01480
C         20.63149        14.78843         0.45124
C         19.43243        14.05602         0.18338
C         20.62669        16.18753         0.41202
C         19.39453        16.89689         0.15583
C         20.63470        19.02945         0.00488
C         19.40009        18.29249        -0.03859
C         20.67618        20.40418        -0.29993
C         19.46417        21.07312        -0.92015
C         20.66977        23.26253        -0.77591
C         19.40259        22.54970        -0.64080
C         20.65076        24.78329        -0.60992
C         19.38343        25.40831        -0.21364
C         20.65792        27.47615         0.30609
C         19.41203        26.76652         0.24429
C         20.64669        28.83819         0.69685
C         19.45551        29.48173         1.05406
C         20.57409        31.75823         1.06947
C         19.51033        30.84283         1.71959
C         20.77570        33.05650         1.86670
C         19.47930        33.83538         1.88216
C         20.70321        35.97287         2.11199
C         19.44468        35.20237         1.92738
C         20.69961        37.45262         1.98820
C         19.46556        38.08687         1.77558
C         20.72415        40.31263         1.44923
C         19.43483        39.50189         1.24891
C         20.72504        41.53806         0.51737
C         19.44770        42.32550         0.76322
C         20.66018        44.34708         0.02784
C         19.45950        43.71485         0.35073
C         20.66973        45.65044        -0.67561
C         19.34623        46.39843        -0.83585
C         20.69345        48.56819        -1.04904
C         19.46546        47.91250        -0.79776
C         20.68674        49.96514        -1.32630
C         19.47506        50.71424        -1.32660
C         20.69444        52.88100        -1.49684
C         19.47856        52.15070        -1.45504
C         20.69756        54.27413        -1.43848
C         19.47383        55.01096        -1.48166
C         20.68571        57.16709        -1.36399
C         19.51383        56.45386        -1.55932
C         20.74965        58.58623        -1.44751
C         23.43005         4.15416        -3.33329
C         22.12496         4.58804        -3.01723
C         23.57937         7.09401        -2.82573
C         21.78671         5.96092        -2.95893
C         23.39936         8.26505        -2.05306
C         22.08918         8.81233        -1.85548
C         23.32819        10.89181        -0.88606
C         22.02416        10.20444        -1.38586
C         23.18072        12.08932        -0.03979
C         21.95469        12.70476         0.08602
C         23.11440        14.73810         1.04861
C         21.81171        13.95557         0.92457
C         23.09170        16.23306         0.94065
C         21.83741        16.95405         0.58617
C         23.09547        19.10840         0.52971
C         21.84353        18.32502         0.37936
C         23.12488        20.50452         0.06699
C         21.90941        21.14641        -0.25712
C         23.13033        23.28075        -0.48524
C         21.93515        22.55541        -0.53152
C         23.13645        24.73465        -0.43242
C         21.92320        25.44690        -0.30223
C         23.17595        27.50033         0.11584
C         21.92317        26.81945         0.03495
C         23.22323        28.88354         0.53856
C         21.92131        29.59406         0.60604
C         23.19226        31.74137         1.12917
C         21.91385        31.06510         0.79316
C         23.22574        33.09968         1.32737
C         21.91859        33.87881         1.22422
C         23.22269        36.05245         1.51689
C         21.98914        35.24948         1.87465
C         23.23594        37.43996         2.21101
C         21.95314        38.16947         1.80217
C         23.18895        40.16486         0.91222
C         21.96542        39.47559         1.36727
C         23.19423        41.63823         0.72735
C         22.01150        42.31875         0.66892
C         23.23352        44.40663         0.00033
C         21.96737        43.81688         0.58990
C         23.24164        45.70924        -0.50056
C         21.96817        46.37331        -0.89137
C         23.16997        48.50754        -1.26044
C         21.96343        47.84795        -1.08579
C         23.21604        49.92888        -1.45511
C         21.94823        50.62001        -1.68586
C         23.24523        52.82653        -1.45544
C         21.97409        52.17417        -1.71995
C         23.19580        54.22601        -0.86091
C         22.01007        55.00659        -1.49589
C         23.20844        57.13279        -0.94222
C         21.89460        56.39096        -0.86691
C         23.10972        58.49476        -0.81738
C         21.95020        59.27333        -1.20313
C         23.28077        61.29307        -1.97051
C         22.11019        60.65834        -1.52728
C         24.61461         4.88565        -3.24135
C         25.83362         6.73814        -2.06531
C         24.71042         6.23217        -2.74039
C         25.78633         8.00922        -1.40524
C         24.56791         8.79215        -1.41161
C         25.61391        10.49781         0.01497
C         24.54588        10.05977        -0.75899
C         25.61206        11.85465         0.58518
C         24.38804        12.68743         0.51957
C         25.69741        14.72839         1.23611
C         24.40339        14.00330         0.89435
C         25.67394        16.16371         0.72125
C         24.38883        16.89845         0.59955
C         25.66989        19.05693         0.25059
C         24.41788        18.38981         0.66162
C         25.61729        20.46485        -0.05530
C         24.36993        21.17781        -0.07720
C         25.60324        23.26643        -0.52404
C         24.37724        22.57941        -0.35839
C         25.63804        24.75253        -0.79805
C         24.36331        25.44400        -0.38535
C         25.69276        27.57785        -0.44217
C         24.38782        26.82479        -0.15465
C         25.68749        29.08332         0.02561
C         24.40686        29.55034         0.69373
C         25.71681        31.66708         1.23177
C         24.42232        30.89676         1.38815
C         25.70116        33.08445         1.43983
C         24.47396        33.77664         1.55992
C         25.77302        35.97306         1.77764
C         24.47364        35.22904         1.81877
C         25.70763        37.39628         1.27260
C         24.57700        38.21404         1.95458
C         25.75303        40.24638         1.12588
C         24.48982        39.47232         1.11971
C         25.72218        41.61394         0.74451
C         24.47860        42.31135         0.53373
C         25.67374        44.26958        -0.42981
C         24.44389        43.65139         0.08356
C         25.67396        45.71439        -0.72951
C         24.47424        46.38230        -0.81737
C         25.71948        48.53202        -1.30439
C         24.44399        47.73008        -1.51629
C         25.68676        49.94802        -1.31395
C         24.42435        50.64312        -1.47254
C         25.67552        52.79969        -1.31468
C         24.42749        52.08824        -1.47273
C         25.64470        54.27069        -1.65414
C         24.46805        55.03432        -1.09768
C         25.71979        57.12273        -1.55211
C         24.47526        56.41843        -1.11297
C         25.77571        58.49690        -2.01320
C         24.92018        59.49832        -1.58548
C         24.55235        60.73144        -2.18220
C         26.85599         8.42010        -0.61293
C         28.03032        10.46960        -0.17880
C         26.83898         9.64069         0.24582
C         28.09898        11.85641         0.03984
C         26.95099        12.56367         0.67342
C         28.11755        14.73809         0.49658
C         26.95313        14.03902         0.72247
C         28.16577        16.18142         0.45866
C         26.95223        16.97592         0.90577
C         28.08699        18.97510        -0.14544
C         26.87386        18.34889         0.25751
C         28.03565        20.35945        -0.74667
C         26.80962        21.14828        -0.36838
C         28.07310        23.30734        -0.78804
C         26.79988        22.54109        -0.56721
C         28.05091        24.54142         0.13508
C         26.86425        25.41843        -0.18395
C         28.14389        27.42324         0.45642
C         26.90089        26.76421         0.03698
C         28.13640        28.84496         0.74480
C         26.94114        29.56627         0.74037
C         28.18531        31.65553         1.27709
C         26.92745        30.96270         1.10132
C         28.16095        33.07746         1.37874
C         26.96418        33.80225         1.43691
C         28.18428        35.99380         1.34367
C         27.01653        35.24223         1.51211
C         28.20845        37.42531         1.42111
C         27.00250        38.15192         1.46080
C         28.22964        40.33510         1.60055
C         26.96192        39.56090         1.37726
C         28.20238        41.69239         0.93931
C         26.98903        42.28110         0.57759
C         28.18568        44.42579         0.00460
C         26.99211        43.55021        -0.17032
C         28.24057        45.67583        -0.81306
C         26.94098        46.37688        -1.13511
C         28.17418        48.59770        -1.20916
C         26.95444        47.86095        -1.25218
C         28.14276        50.00207        -1.10979
C         26.89354        50.68382        -1.14261
C         28.09274        52.88415        -0.67641
C         26.85609        52.12839        -1.10215
C         28.09931        54.32004        -1.12120
C         26.95096        54.97975        -1.42891
C         26.89695        56.39788        -1.66824
C         29.23447        12.60558        -0.24939
C         30.56622        14.73947        -0.14514
C         29.41418        13.95197         0.39692
C         30.54998        16.10937        -0.20773
C         29.32128        16.85251         0.08347
C         30.53965        18.98409        -0.44293
C         29.30429        18.28409        -0.13534
C         30.55658        20.36066        -0.58870
C         29.32796        21.12974        -0.58162
C         30.60304        23.30041        -0.71641
C         29.33001        22.49581        -0.62602
C         30.53993        24.60600         0.04683
C         29.36569        25.29064         0.18092
C         30.61365        27.37803         0.77836
C         29.34063        26.70442         0.52585
C         30.59939        28.78635         1.08537
C         29.39527        29.50494         1.07340
C         30.67778        31.62062         1.40453
C         29.40385        30.93222         1.27666
C         30.70097        33.09866         1.52761
C         29.42080        33.84299         1.49174
C         30.71354        35.99547         1.17561
C         29.42523        35.24984         0.93524
C         30.70409        37.41675         1.19603
C         29.47174        38.14853         1.31587
C         30.71884        40.27254         1.15597
C         29.48963        39.54903         1.29607
C         30.67418        41.71368         1.00577
C         29.45841        42.38364         0.84975
C         30.71861        44.61539         0.55203
C         29.42643        43.84913         0.63542
C         30.73035        45.96446        -0.11306
C         29.52603        46.45079        -0.85298
C         30.74188        48.69033        -0.94306
C         29.49221        47.91790        -1.17675
C         30.65993        50.07811        -0.98672
C         29.39753        50.76663        -1.03012
C         29.36511        52.14164        -0.95717
C         31.75419        16.84230        -0.49143
C         33.03348        18.92834        -0.60467
C         31.78664        18.22719        -0.53186
C         33.09112        20.31541        -0.66020
C         31.82931        21.08117        -0.97051
C         33.05114        23.15890        -0.29472
C         31.85086        22.49774        -0.47529
C         33.06729        24.55972         0.03178
C         31.81445        25.17189         0.61440
C         33.15269        27.30051         1.02278
C         31.81281        26.67616         0.68899
C         33.13821        28.80718         0.95738
C         31.88778        29.44650         1.53593
C         33.19013        31.65437         1.56921
C         31.86479        30.94280         1.41901
C         33.12844        33.13039         1.26716
C         31.95992        33.82535         1.23481
C         33.14471        36.00581         0.98492
C         31.92559        35.28790         1.14337
C         33.13898        37.39817         0.89844
C         31.93272        38.13482         1.08805
C         33.21736        40.26782         0.97005
C         31.94781        39.56785         1.08061
C         33.24835        41.73221         1.22029
C         31.94445        42.47881         1.09129
C         33.19219        44.50210         0.21650
C         31.98189        43.88579         0.65401
C         33.18586        45.85653        -0.30563
C         32.02154        46.59836        -0.48731
C         31.96777        47.98025        -0.81754
C         34.30301        21.04107        -0.60964
C         35.49310        23.20520        -0.61522
C         34.31200        22.44696        -0.50154
C         35.47827        24.60850        -0.48311
C         34.26193        25.28020        -0.05022
C         35.45412        27.41794        -0.00748
C         34.29976        26.67849         0.25549
C         35.50340        28.82887         0.28842
C         34.27454        29.51195         0.69129
C         35.59762        31.69390         0.80318
C         34.24657        31.02509         0.61011
C         35.65819        33.03647         0.97123
C         34.44743        33.85471         1.39279
C         35.67402        36.01239         0.96491
C         34.39278        35.21300         0.65623
C         35.64694        37.39980         0.35540
C         34.34825        38.13501         0.46237
C         35.64290        40.29869         0.41882
C         34.37193        39.59987         0.61028
C         35.68262        41.68076         0.49323
C         34.56445        42.51010         1.06036
C         34.40748        43.80491         0.30671
C         36.64365        25.37551        -0.70177
C         37.83407        27.52825        -0.68369
C         36.64739        26.76279        -0.50043
C         37.89392        28.86239        -0.29298
C         36.71355        29.50880         0.20590
C         38.16477        31.56628         0.76180
C         36.82647        30.81700         0.94455
C         38.24526        33.06424         0.91671
C         36.93880        33.77568         0.75986
C         38.20448        36.01351         0.47586
C         36.92290        35.25102         0.54683
C         38.13772        37.44408         0.37302
C         36.92672        38.15732         0.34496
C         36.85919        39.55659         0.24685
C         39.10748        29.63453        -0.46787
C         40.35037        31.74411        -0.50139
C         39.25341        30.91785        -0.01099
C         40.42724        33.08421        -0.34229
C         39.55119        33.84025         0.63359
C         39.37872        35.31443         0.33741
O          9.90269        33.57102         1.69332
O         28.43274        44.58355         1.43470
O         25.14060        35.65983         3.05723
O         34.85757        37.59802        -0.85294
O         21.92412        51.37644        -2.94440
O         30.08016        33.62321         2.77452
O         30.60910        45.87751         1.33891
O         21.51134        35.35720         3.24407
O         21.89159        30.52800        -0.58520
O         15.00732        46.72666         1.61006
O         25.04978        16.33004        -0.58587
O         13.74209        37.32554        -1.14320
O         13.11797        24.40497        -1.63645
O         26.38098        43.46818        -1.47097
O         21.34558        45.59060        -1.99471
O         36.84011        34.36402        -0.61267
O         29.77907        46.89965        -2.20852
O         14.23496        33.41328        -0.49205
O         27.66238        45.58369        -2.14034
O         32.56301        42.17196         2.43885
O         23.76268        18.92717         1.84548
O         22.83464        11.10177        -2.23416
O         34.59174        33.99205         2.80463
O         15.49367        32.46769         2.72776
O         38.46532        32.20398         2.06806
O         23.09108        15.58754         2.25890
O         18.07011        46.68567         1.31995
O         26.35655        11.94971         1.87589
O         20.66174        24.16346        -1.94381
O         28.10656        23.86996        -2.17844
O         22.61042         6.80171        -3.76728
O         25.77001        27.54970        -1.86599
O         24.22405        59.21810        -0.39234
O         23.84535        39.38730        -0.17871
O         13.78906        35.78626         2.16995
O         20.77052        40.89790         2.77785
H         20.58466        40.19533         3.43684
O         40.33962        33.86251         1.86336
H         40.06405        33.06918         2.38360
O         19.18186        39.30460        -0.17467
H         19.81151        38.62957        -0.50687
O         17.85308        33.17872         3.44345
H         18.53951        32.68590         3.94216
O         14.32606        26.17010         2.44081
H         14.97641        25.46190         2.63483
O         27.10646        17.22312         2.33120
H         26.86309        16.39325         2.80747
O         23.00139        53.99420         0.55050
H         22.62642        54.81851         0.94782
O         19.85116        30.58421         3.10840
H         19.15366        30.00512         3.48224
O         11.97033        39.12122         2.55274
H         12.08704        39.93826         3.09683
O         25.10109        38.66102         3.21388
H         24.80780        38.01705         3.90080
O         24.39670        47.41858        -2.94405
H         25.18937        46.88433        -3.16662
O         24.34455        30.55397         2.82529
H         24.31735        31.39390         3.33241
O         28.02510        52.94675         0.80362
H         28.02075        52.02352         1.13538
O         31.83827        24.73096         2.02889
H         32.49645        25.32115         2.48331
O         23.15410        37.30582         3.63781
H         22.49150        36.60851         3.86642
O         31.99481        29.20354         2.99892
H         32.59479        29.91535         3.34460
O         21.18104        32.71212         3.20065
H         21.27956        33.55570         3.70277
O         12.88806        38.19576        -1.92270
H         12.09897        37.60431        -2.08808
O         17.42886        33.53124        -0.18218
H         16.93535        34.19269        -0.72623
O         19.66579        20.97119        -2.39050
H         20.21377        21.73609        -2.67358
O         25.69117        29.90132        -1.17708
H         25.68955        29.22592        -1.92282
O         35.76580        36.24882         2.38182
H         35.39257        35.43691         2.84953
O          9.27435        26.37898         1.86968
H          9.08038        27.23749         2.30453
O         12.79162        41.51085         2.94355
H         13.29663        42.13683         3.51667
O          8.73849        32.91863        -1.69878
H          7.96517        32.50589        -2.13917
O         34.31160        34.90127        -0.74885
H         34.42164        35.74971        -1.24291
O         25.83409        14.77953         2.68469
H         25.88305        13.84769         2.99754
O          7.90551        31.85221         1.74589
H          8.59803        32.41509         2.17405
O         33.38957        26.94087         2.44185
H         32.90236        27.62909         2.97253
O         15.59787        28.52707         2.94849
H         14.96555        27.77759         3.09636
O         23.13448        36.32266         0.09823
H         22.73083        35.53701        -0.35404
O         21.64847        34.15249        -0.17281
H         21.02310        33.45614        -0.51841
O         18.82751        46.07816        -2.15596
H         19.61210        45.98617        -2.74830
O         11.94274        24.70039         1.81692
H         11.14122        25.08333         2.24067
O         20.72890        41.18861        -0.88484
H         19.88568        40.71605        -1.08283
O         20.00663        32.12318        -0.21056
H         20.32739        31.44260        -0.85669
O         31.80603        21.18540        -2.44069
H         31.37346        22.04869        -2.66792
O         33.63882        31.49904         2.93879
H         34.06148        32.38087         3.19021
O         22.35700        55.19118        -2.89919
H         22.00162        54.43153        -3.40784
O         21.46650        13.49625         2.26645
H         21.71460        14.22970         2.87602
O         28.27677        40.60380         3.04666
H         29.08179        41.13719         3.22256
O         16.56570        17.01794         1.58386
H         16.56755        16.11368         1.96503
O         15.71727        23.74284        -2.37768
H         14.84106        24.17022        -2.54151
O         16.10035        35.89408        -0.67723
H         15.39127        36.40982        -1.13314
O         21.61661        56.21117         0.56678
H         21.57612        57.10161         0.97600
O         25.56257        37.33212        -0.16213
H         24.61256        37.16097        -0.38640
O         25.70371        24.93050        -2.24892
H         25.74760        25.93734        -2.37003
O         25.42163        54.30447        -3.11518
H         24.47612        54.53033        -3.27284
O         36.77586        30.37423         2.33653
H         37.10350        31.12364         2.88599
O         27.89111        20.15560        -2.19652
H         27.78156        21.04905        -2.60738
O         26.92816         9.24577         1.64701
H         26.85749        10.07656         2.17355
O         13.29707        40.67222        -0.55715
H         13.24122        39.83176        -1.07751
O         18.05592        11.47941         1.48478
H         18.94818        11.26613         1.83389
O         14.77157        42.91263         3.03647
H         15.31370        43.73099         3.05842
O         11.18840        36.03515        -1.59504
H         11.16024        35.10930        -1.92145
O         21.96709        44.30558         1.98758
H         21.41039        43.69404         2.51783
O         33.81971        31.32750        -0.74747
H         33.99191        32.27992        -0.92034
O         27.86931        24.00288         1.47897
H         28.04384        24.72119         2.12274
O         27.36983        22.97150        -3.04692
H         26.49993        23.46874        -3.10036
O         29.79048        13.64532         1.79574
H         29.06178        13.11542         2.18567
O         35.02234        42.89822         2.39798
H         34.21449        42.93976         2.96457
O         30.75430        23.70174        -2.13912
H         29.84316        23.91475        -2.47762
O         18.32865        40.46792         3.18970
H         17.51605        40.93038         3.48504
O         29.32999        35.06331        -0.51731
H         29.20302        35.94334        -0.93083
O         15.92890        18.76145        -2.46390
H         16.71018        19.29764        -2.72300
H          5.00512        31.23017        -0.80742
H          4.96226        33.67238        -0.61065
H          7.36781        26.94882        -0.26683
H          6.28440        29.07486        -0.81372
H          6.20403        35.84150        -0.11562
H          7.46862        38.00391         0.04225
H          9.77854        22.66406        -0.68863
H          8.63442        24.87110        -0.65316
H          8.67359        40.12804         0.32129
H          9.93354        42.23059         0.40826
H         12.29224        18.41125        -0.57702
H         11.05200        20.48310        -0.68160
H         11.17838        44.25623         0.16605
H         12.36075        46.25793        -0.34483
H         14.87087        14.17141        -0.87293
H         13.51758        16.26680        -0.65805
H         13.59465        48.52117        -0.73661
H         14.83146        50.61093        -1.13560
H         17.41149         9.93522        -0.80098
H         16.07592        12.08146        -0.57089
H         16.07151        52.72240        -1.40205
H         17.31253        54.84688        -1.53441
H         19.97499         6.06569        -1.79648
H         18.72852         8.07722        -1.64278
H         18.57554        56.99159        -1.76463
H         19.87075        59.13838        -1.81356
H         23.54910         3.07426        -3.51773
H         21.37233         3.83489        -2.74350
H         23.13299        62.30861        -2.37286
H         21.17854        61.23329        -1.65363
H         25.55751         4.32855        -3.34976
H         26.74455         6.12824        -1.97715
H         26.51434        58.72576        -2.79721
H         25.23602        61.22944        -2.88547
H         27.74934         7.77910        -0.55609
H         28.84540         9.99009        -0.74136
H         29.04177        54.88119        -1.01809
H         27.83508        56.93485        -1.87793
H         30.11327        12.10550        -0.68508
H         31.50149        14.19548        -0.34722
H         31.57571        50.68110        -0.89414
H         30.31281        52.69764        -0.88505
H         32.69066        16.27574        -0.60702
H         33.96557        18.34669        -0.52932
H         34.15772        46.31183        -0.54841
H         32.91042        48.54519        -0.88091
H         35.26081        20.49835        -0.62639
H         36.44157        22.69762        -0.84566
H         36.64390        42.19558         0.34126
H         35.32895        44.30635        -0.02565
H         37.56946        24.87065        -1.01514
H         38.73488        27.03161        -1.07381
H         39.08401        38.00482         0.31545
H         37.79637        40.12826         0.16000
H         39.91473        29.18599        -1.06786
H         41.09478        31.23553        -1.13465
H         41.26737        33.63228        -0.79523
H         40.31756        35.87461         0.19961
