         576
 CSIRO Nanostructure Databank - Neutral Graphene Oxide Data Set
C          6.16951        18.92828        -0.20355
C          6.14451        20.33552        -0.12490
C          4.90676        21.09489        -0.14023
C          6.08885        23.24829         0.03658
C          4.88380        22.45859        -0.08930
C          6.08556        24.62634         0.07359
C          8.63785        14.64615        -0.69242
C          8.55082        16.08177        -0.66056
C          7.41229        16.75859        -0.29253
C          8.60794        18.93379        -0.16070
C          7.38547        18.21474        -0.21763
C          8.58123        20.33713        -0.07009
C          7.36829        21.04232        -0.03193
C          8.64949        23.29343         0.11707
C          7.35969        22.50692         0.19414
C          8.55832        24.75892        -0.09034
C          7.29752        25.41751         0.05429
C          8.42718        27.60850        -0.06533
C          7.25222        26.82883         0.03520
C          8.41655        29.05260        -0.02834
C         11.04911        10.36749        -1.11637
C         11.02731        11.79938        -1.05944
C          9.85385        12.51294        -0.93437
C         11.05210        14.67027        -1.30596
C          9.79633        13.94551        -0.97855
C         11.01447        16.15744        -1.33658
C          9.71494        16.93304        -1.13832
C         11.02415        18.98463        -0.85746
C          9.92579        18.15275        -0.19724
C         10.78132        20.30158        -1.01595
C          9.92994        21.02935        -0.00942
C         11.13869        23.37703        -0.59514
C          9.96059        22.57098        -0.11003
C         10.95597        24.86823        -0.89745
C          9.71123        25.51811        -0.32791
C         10.89537        27.70303        -0.26143
C          9.66845        26.93194        -0.25218
C         10.86270        29.14064        -0.16781
C          9.57584        29.81730        -0.10137
C         10.72718        32.02092        -0.05817
C          9.57038        31.26456        -0.02388
C         10.74837        33.45900        -0.09414
C         13.67499         6.21396        -1.41693
C         13.54614         7.59415        -1.03324
C         12.34774         8.27861        -1.19712
C         13.33416        10.36506        -0.15091
C         12.21827         9.66167        -0.89065
C         13.50300        11.81312        -0.58006
C         12.36255        12.47264        -1.31787
C         13.52067        14.64713        -0.94309
C         12.35607        13.96881        -1.11103
C         13.53030        16.13019        -0.82232
C         12.28345        16.89965        -1.02602
C         13.59561        19.11490        -1.54860
C         12.26903        18.35927        -1.38646
C         13.69627        20.62670        -1.48496
C         12.59243        21.46123        -1.60737
C         13.34504        23.77336        -1.64502
C         12.41366        22.87025        -1.23827
C         13.40067        25.23971        -1.36523
C         12.24246        25.57439        -0.42281
C         13.35231        27.74809        -0.06534
C         12.12529        27.06377        -0.31150
C         13.31325        29.18578         0.11460
C         12.05528        29.85534        -0.08134
C         13.22825        32.04377         0.31910
C         12.05207        31.34165        -0.33017
C         13.18596        33.53925         0.40820
C         11.92849        34.19670        -0.02620
C         13.23688        36.23254        -0.48328
C         12.01441        35.57606        -0.38210
C         13.31631        37.58153        -0.98191
C         16.04433         6.20973        -0.79547
C         14.86640         5.55488        -1.31745
C         15.95062         7.54278        -0.36887
C         14.72123         8.27946        -0.50025
C         15.80236        10.35002         0.46689
C         14.64116         9.62290        -0.16395
C         15.84855        11.81704         0.11651
C         14.67487        12.49616        -0.34496
C         15.78476        14.72552         0.22956
C         14.84687        13.95909        -0.72955
C         15.95603        16.18268        -0.20039
C         14.84560        16.82809        -0.92229
C         16.05715        19.02296        -0.65315
C         14.88144        18.32645        -1.23120
C         16.07707        20.45017        -0.73513
C         15.00801        21.20370        -1.22921
C         16.03201        23.38926        -0.57939
C         15.20609        22.62951        -1.39097
C         15.95018        24.87873        -0.42093
C         14.72097        25.72205        -0.74153
C         15.72121        27.65993         0.54610
C         14.57476        27.05475        -0.09794
C         15.65666        29.16186         0.87520
C         14.49489        29.88724         0.39102
C         15.78167        32.12195         0.59956
C         14.55608        31.35569         0.24037
C         15.69612        33.61354         0.95311
C         14.45892        34.27738         0.38577
C         15.73886        36.25314        -0.29917
C         14.48430        35.57258        -0.10985
C         15.77254        37.53315        -0.92256
C         14.51715        38.19269        -1.20281
C         18.49111         6.18802        -0.46573
C         17.29143         5.51583        -0.74754
C         18.44314         7.56738        -0.07043
C         17.12364         8.16602         0.33913
C         18.29917        10.38081         0.40193
C         17.12227         9.66399         0.25744
C         18.24974        11.81409         0.48900
C         17.05481        12.51502         0.24945
C         18.34029        14.70491         0.44332
C         17.10345        13.99403        -0.06156
C         18.34080        16.16948         0.48111
C         17.14482        16.86746        -0.00482
C         18.33741        19.02237         0.33987
C         17.17317        18.31201        -0.16016
C         18.34127        20.40925         0.36193
C         17.29236        21.16305        -0.33585
C         18.14702        23.20771         0.95475
C         17.23990        22.67494        -0.14315
C         18.16689        24.74090         1.00048
C         16.98673        25.51785         0.48165
C         18.18323        27.69359         0.85968
C         17.04669        27.01213         0.49661
C         18.20140        29.12223         1.13409
C         16.93963        29.86600         1.21465
C         18.27414        32.09154         1.18518
C         16.98053        31.40769         1.16383
C         18.31035        33.49064         0.53001
C         16.98209        34.27961         0.52380
C         18.22389        36.21154        -0.41155
C         16.96979        35.56402        -0.00035
C         18.23539        37.48674        -1.12337
C         16.98826        38.13490        -1.31081
C         20.95805         6.22824        -0.46912
C         19.76847         5.53183        -0.58197
C         20.90339         7.69679        -0.32212
C         19.61332         8.32661         0.00532
C         20.78513        10.39878         0.67960
C         19.58997         9.70974         0.35577
C         20.70831        11.78890         1.17534
C         19.43175        12.54468         0.95201
C         20.78166        14.73367         0.97685
C         19.45624        14.01196         0.82724
C         20.58443        16.08893         1.66109
C         19.44649        16.85242         0.96287
C         20.67571        18.97417         1.14247
C         19.49910        18.29642         0.87435
C         20.77300        20.41081         0.79310
C         19.51459        21.17697         0.72452
C         20.75237        23.35730         0.70339
C         19.49549        22.54293         0.85357
C         20.67256        24.80373         1.13897
C         19.46255        25.46493         1.09870
C         20.73777        27.67526         1.19652
C         19.45778        26.92982         0.90679
C         20.67058        29.14377         1.40811
C         19.39674        29.82880         1.36171
C         20.67338        31.85523         1.80449
C         19.39376        31.28550         1.48970
C         20.73496        33.99961         1.24045
C         19.37438        34.54644         0.97542
C         20.65004        35.99733        -0.77562
C         19.40582        35.61889        -0.07914
C         20.71439        37.37384        -1.33116
C         19.46476        38.07185        -1.46881
C         23.41990         6.26209        -0.15946
C         22.24964         5.60551        -0.51619
C         23.40378         7.64995         0.28609
C         22.17771         8.44277         0.05747
C         23.18633        10.40797         1.25162
C         22.04217         9.76983         0.67477
C         23.14949        11.74106         1.67043
C         21.96613        12.54492         1.42550
C         23.04054        14.66608         2.26263
C         21.93131        13.91354         1.54122
C         23.07453        16.15490         1.93764
C         21.91389        16.83441         1.72751
C         23.10851        19.09057         1.98056
C         21.77403        18.33181         1.96849
C         23.19743        20.48603         1.54597
C         22.01444        21.18726         1.05819
C         23.16287        23.33811         1.38455
C         21.97504        22.64156         1.19125
C         23.17561        24.77872         1.49071
C         21.91282        25.51304         1.41892
C         23.14003        27.61319         2.00769
C         21.90632        26.88670         1.62526
C         23.13520        29.09283         1.78754
C         21.87839        29.82306         1.47964
C         23.15302        32.10342         1.68200
C         21.89253        31.24662         1.62432
C         23.08874        33.29207         0.66109
C         21.88103        34.17802         0.54731
C         23.19916        35.83790        -0.86054
C         21.91051        35.21031        -0.53311
C         23.18029        37.01770        -1.80529
C         21.93575        37.87598        -1.71924
C         25.79200         6.09101         0.48894
C         24.67826         5.55568        -0.10552
C         25.71223         7.41886         1.15041
C         24.47351         8.20745         0.94048
C         25.70308        10.29535         1.82927
C         24.40213         9.58040         1.49419
C         25.67409        11.76407         1.68314
C         24.40635        12.43255         2.04392
C         25.63565        14.62685         1.69323
C         24.40821        13.93630         2.16782
C         25.67309        16.09236         1.88919
C         24.38380        16.83696         2.15194
C         25.66400        19.01852         1.69047
C         24.42266        18.33507         2.10015
C         25.63733        20.40140         1.53268
C         24.40926        21.16367         1.51737
C         25.59280        23.34160         1.20332
C         24.41076        22.61496         1.38007
C         25.62712        24.76552         1.33354
C         24.39915        25.45052         1.58108
C         25.67686        27.65081         1.59255
C         24.47521        26.86465         2.11135
C         25.66980        29.01149         1.44447
C         24.40422        29.78463         1.42537
C         25.72008        32.03874         1.39835
C         24.40348        31.27952         1.35374
C         25.70552        33.11930         0.27255
C         24.36540        33.82491         0.05139
C         25.64329        35.83538        -0.81571
C         24.40626        35.20780        -0.53265
C         25.64021        37.21157        -1.26627
C         24.45058        37.80739        -1.69206
C         28.21470         5.89125         0.97092
C         27.03880         5.35144         0.55946
C         28.33715         7.32757         1.47632
C         26.99796         8.09160         1.57318
C         28.09680        10.40079         1.08003
C         27.07463         9.61392         1.88421
C         27.97167        11.74409         0.85976
C         26.77702        12.47739         1.27755
C         27.97885        14.66585         0.88814
C         26.75756        13.93959         1.26488
C         28.01484        16.10132         1.00774
C         26.87309        16.83949         1.43819
C         28.07691        18.94697         1.05883
C         26.86196        18.24921         1.39628
C         28.11065        20.37322         1.03405
C         26.82655        21.09110         1.01028
C         28.06739        23.31703         0.62235
C         26.77952        22.58142         0.77616
C         28.09756        24.81019         0.81315
C         26.85391        25.51288         1.20278
C         28.17339        27.62687         1.33863
C         26.91278        26.90257         1.37538
C         28.17511        29.01772         1.23059
C         26.88964        29.71436         0.87857
C         28.14319        31.87923         0.92755
C         26.94480        31.19903         1.11217
C         28.17961        33.31013         0.67456
C         26.88171        34.07906         0.49671
C         28.11764        36.01810        -0.43158
C         26.96222        35.10065        -0.68291
C         28.08478        37.37768        -0.80008
C         26.86608        37.94728        -1.25329
C         30.53359         5.46335         0.40471
C         29.46021         5.09560         1.14982
C         30.44191         7.61229        -0.14061
C         29.42883         8.18516         0.76177
C         30.35829        10.41426        -0.09163
C         29.34561         9.70276         0.71223
C         30.29040        11.80929        -0.16517
C         28.96869        12.51494         0.01696
C         30.29748        14.68354         0.02399
C         29.09811        13.97723         0.40291
C         30.32118        16.10144         0.10998
C         29.20241        16.80385         0.61100
C         30.47226        18.95012         0.43458
C         29.24429        18.23360         0.71006
C         30.51568        20.38032         0.57059
C         29.31897        21.06400         0.86346
C         30.60326        23.22715         1.10527
C         29.32821        22.54139         0.74137
C         30.62561        24.69866         1.52192
C         29.41891        25.48184         1.04827
C         30.66806        27.54548         1.45641
C         29.44012        26.91602         1.40107
C         30.65873        29.02479         1.52452
C         29.39261        29.76798         1.25600
C         30.66929        31.94342         1.15319
C         29.38713        31.14749         1.04206
C         30.64135        33.30848         0.48729
C         29.38460        33.97614         0.42934
C         30.57021        36.08730        -0.32206
C         29.33715        35.47584         0.25371
C         30.54213        37.45440        -0.64506
C         29.30710        38.13540        -0.76173
C         32.91904         6.10562         0.04632
C         31.96180         5.23912         0.49981
C         32.88771         7.48734        -0.46817
C         31.63180         8.26194        -0.46989
C         32.52389        10.49415        -1.13277
C         31.51781         9.71128        -0.53787
C         32.65491        11.85140        -0.85508
C         31.46710        12.55654        -0.46638
C         32.68095        14.69217        -0.94352
C         31.45635        13.96934        -0.41770
C         32.79887        16.08055        -0.29940
C         31.49008        16.86501        -0.47776
C         32.92180        19.00211        -0.13469
C         31.60745        18.27700         0.00562
C         32.77109        20.47480        -0.41345
C         31.69001        21.11840         0.13210
C         32.99186        23.40624         0.19313
C         31.80626        22.53770         0.58132
C         33.19850        24.55274         1.22710
C         31.93688        25.42277         1.25231
C         33.18732        27.54494         1.05138
C         31.94039        26.80211         1.29895
C         33.16722        28.93079         0.98718
C         31.94633        29.73667         1.25338
C         33.14949        31.86714         0.66563
C         31.81645        31.11034         0.58636
C         33.10575        33.26668         0.08976
C         31.85302        33.92265         0.06197
C         33.06466        36.07686        -0.45403
C         31.79295        35.27190        -0.63001
C         32.99612        37.50402        -0.68369
C         31.80758        38.14796        -0.84168
C         34.16184         8.06379        -0.54058
C         35.41954        10.30873        -0.63336
C         34.44404         9.40462        -0.98487
C         35.30712        11.75010        -0.89975
C         33.99671        12.46183        -0.73216
C         35.22100        14.69329        -1.05799
C         33.99757        13.97034        -0.69541
C         35.17031        16.12217        -1.23204
C         34.00021        16.80595        -0.86050
C         35.12024        19.00399        -1.47340
C         33.90099        18.25810        -1.02210
C         35.14608        20.50538        -1.37550
C         33.89377        21.31802        -1.00052
C         35.42777        23.31153        -0.31372
C         34.21505        22.47480         0.02994
C         35.51784        24.61503         0.05509
C         34.53164        25.34725         0.96524
C         35.51674        27.50951         0.17364
C         34.39535        26.83179         0.61634
C         35.59758        28.98125         0.29493
C         34.28547        29.65087         0.43000
C         35.97221        32.06593        -0.33854
C         34.11841        30.93725         0.00672
C         35.65639        33.45409        -0.12165
C         34.34976        33.98574        -0.12987
C         34.25280        35.43141        -0.25676
C         36.43895        12.52450        -1.02900
C         37.61863        14.68564        -1.43837
C         36.43447        13.97123        -1.18371
C         37.62960        16.10438        -1.63810
C         36.37401        16.83476        -1.59226
C         37.61987        18.94982        -1.68834
C         36.39985        18.26561        -1.63695
C         37.70992        20.36089        -1.28143
C         36.46409        21.19001        -1.37057
C         37.88511        23.29552        -1.07886
C         36.54165        22.65678        -1.05655
C         38.03710        24.67738        -0.55490
C         36.79729        25.37025        -0.12029
C         38.00216        27.55951        -0.55782
C         36.66816        26.82026        -0.51722
C         38.04640        28.92949        -0.41674
C         36.89643        29.73805         0.06310
C         37.00885        31.24685         0.02149
C         38.83374        16.78599        -1.82823
C         40.15773        18.97235        -2.01377
C         38.84627        18.23979        -2.20382
C         40.24971        20.30430        -1.74112
C         39.05990        21.06741        -1.29494
C         40.29618        23.23372        -1.56842
C         39.11032        22.52878        -1.33152
C         40.31518        24.66452        -1.51800
C         39.20764        25.43004        -1.07801
C         39.17166        26.82792        -0.97512
C         41.47251        21.08159        -1.89909
C         41.49141        22.44324        -1.84180
O         12.99525        32.65532         1.61119
O          8.09024        22.89495         1.42125
O         15.21280        17.33447        -2.24521
O         15.37142        28.15710         1.89355
O         26.15831         7.41930         2.55794
O         34.04461        13.23511         0.55929
O         17.06985        25.14502         1.90906
O         10.97475        23.10259         0.82464
O         35.74477        20.99277        -2.63289
O         28.80946        22.93326        -0.57704
O         15.85437        25.65114        -1.67259
O         21.66757        20.69573        -0.36996
O         14.42971        23.27699        -2.36744
O         23.78554        18.92115         3.28398
O         36.98069        23.36186        -2.26993
O         23.03299        28.54961         3.15475
O         34.04803        18.64595        -2.42738
O         16.74252        30.68430         2.41220
O         24.23699        30.50755         0.12853
O         20.34876        27.33694        -0.19460
O         28.88225        25.38448        -0.29931
O         24.56293        13.08559         3.35940
O         31.45840        29.62797         2.62907
O         17.91171        22.09415        -1.30479
O         34.92387        31.39529        -1.02779
O         35.20253        25.48771         2.20244
O         30.21727         6.35488        -0.66126
O         38.45103        20.55928        -0.03215
O         33.49798         9.88280        -1.91502
O         37.79979        24.97417         0.86096
O         20.70596        33.14759         2.36233
O         30.05332         9.02363         1.80071
O         36.50202        29.33363         1.43719
O         11.02550        15.42004        -2.59503
O         12.82998        18.63173        -2.69745
O         21.69673         8.40965        -1.33213
O         10.22280        17.71530         1.13217
O         24.85114         9.76269         2.88615
O         21.07993        34.93344        -1.73204
O         31.44520        22.46978         2.01669
O         26.51881        21.67191        -0.33335
O         17.09458        14.07627        -1.55184
O         11.37819        20.96046        -2.08804
O         23.47591        32.91946        -0.69777
O         15.65401        13.99112        -1.97124
O         15.50395        31.83637        -0.80689
O         19.78958        12.01058         2.30568
O         25.19795        16.37481         3.27073
O         29.21391        35.98294         1.67289
H         29.33604        36.95754         1.63428
O         24.73934        26.66808         3.53264
H         24.35646        27.44618         4.00187
O         36.26379        26.74841        -1.93096
H         36.15476        27.66232        -2.26831
O         32.94993        15.91998         1.12518
H         33.62891        15.23368         1.30450
O         18.60352        33.18188        -0.85725
H         17.81419        32.76268        -1.26308
O         21.21036        15.07011        -0.38490
H         21.13777        14.26950        -0.94573
O         33.34349        23.96310         2.53628
H         34.10155        24.49247         2.94502
O         20.93342        23.44796        -0.75940
H         21.14526        22.53388        -1.07265
O         17.58361        22.72012         2.20335
H         17.04036        23.45007         2.58667
O         38.68881        18.24482        -3.69253
H         37.82330        17.82618        -3.89343
O         31.71808        34.97749        -2.07272
H         32.51954        34.46296        -2.30774
O         12.29719        31.49040        -1.76842
H         11.57702        31.02773        -2.24648
O         33.55117        31.97832         2.05103
H         32.76700        32.32135         2.55015
O         32.69345        24.09191        -1.03080
H         32.72154        23.43247        -1.77107
O         26.76814        29.58491        -0.58557
H         25.93049        30.04198        -0.83727
O         15.60047        33.68655         2.40604
H         14.70980        33.34216         2.65079
O         33.58078        18.98046         1.19220
H         33.79673        19.91195         1.45383
O          9.35140        17.48241        -2.42459
H          9.59302        16.81044        -3.10161
O         25.93204        32.58673         2.70263
H         25.09480        32.98643         3.03385
O         13.26079        25.98486        -2.59718
H         14.06908        25.80810        -3.12898
O         12.66022        25.06058         0.86139
H         11.87038        24.91885         1.42760
O         31.23893        16.98427        -1.92606
H         30.49775        17.61354        -2.05823
O         23.13762        36.40798        -3.15935
H         22.40357        35.74799        -3.13322
O         15.33687        14.60886         1.57382
H         15.92662        15.12737         2.15851
O         27.50986         9.68282         3.26505
H         26.75553         9.34431         3.80085
O         31.49659        30.88820        -0.80385
H         32.26712        30.47436        -1.24873
O         10.80729        24.98111        -2.33267
H         11.42327        25.66739        -2.68109
O         28.79375         7.16242         2.83144
H         28.75839         8.05275         3.25762
O         27.24875        34.43257        -1.93700
H         26.77351        33.56312        -1.93957
O         12.74834        16.63647         0.34810
H         11.15761        17.41654         1.18001
O         32.58001        14.76912        -2.38339
H         31.98405        15.52417        -2.61121
O         30.47675        24.68788         2.97102
H         31.26674        24.20400         3.31310
O         12.63263        12.25122        -2.74099
H         13.42005        12.78229        -2.98870
O         30.91396        32.20842         2.56619
H         30.93206        31.32427         3.01869
O         22.62799        14.65419         3.65245
H         23.10760        13.90824         4.08857
O         23.28775        32.66028         3.00359
H         22.41030        33.03846         3.25212
O         21.26212        18.40070         3.34463
H         22.05818        18.37182         3.93086
O         26.59969        34.86572         1.67274
H         27.45399        35.26878         1.97198
O         16.92572         7.84583         1.79925
H         17.77579         8.04220         2.25049
O         20.12489        15.87471         3.00812
H         20.34138        16.69127         3.51932
O         34.43493        21.79381         1.29054
H         34.17201        22.43286         2.01169
O         25.95467        32.38234        -0.95147
H         25.07568        32.05403        -1.26362
O         10.51262        20.68787         1.27424
H         10.04159        21.20929         1.95928
O         33.38941        21.87999        -2.23004
H         34.13916        21.86804        -2.87676
O         18.90820        35.15417         2.20145
H         18.96287        34.47641         2.90927
O         12.88803        10.42089         1.24816
H         13.70384        10.51577         1.80433
O         28.35168        12.53417        -1.32761
H         28.96116        13.02259        -1.92181
O         15.54125        10.26961         1.93158
H         15.82332         9.35376         2.19552
H          5.21916        18.37767        -0.26992
H          3.96161        20.53784        -0.22039
H          3.92188        22.99087        -0.13446
H          5.12386        25.16093         0.03429
H          7.73531        14.07534        -0.42112
H          6.49082        16.20459        -0.05416
H          6.27764        27.33236         0.12322
H          7.44560        29.56088         0.07690
H         10.12872         9.83084        -1.39717
H          8.91606        11.96560        -0.75138
H          8.59981        31.77063         0.09772
H          9.80127        33.99137        -0.27555
H         12.78701         5.69667        -1.80912
H         11.49131         7.75922        -1.65466
H         11.09441        36.10674        -0.67094
H         12.37886        38.10377        -1.22364
H         14.94679         4.50339        -1.62942
H         14.54698        39.20737        -1.62662
H         17.32460         4.46204        -1.06146
H         16.96189        39.12012        -1.80027
H         19.78694         4.44572        -0.75907
H         19.47329        39.07792        -1.91460
H         22.30017         4.53330        -0.76003
H         21.98502        38.87722        -2.17499
H         24.72827         4.54494        -0.53816
H         24.45879        38.85680        -2.02415
H         27.01369         4.30019         0.23423
H         26.85558        38.99723        -1.58427
H         29.52757         4.36243         1.96723
H         29.29177        39.20311        -1.02285
H         33.95114         5.73880         0.18149
H         32.30471         4.31567         0.99162
H         33.94167        38.06453        -0.74031
H         31.78337        39.22823        -1.04636
H         35.01227         7.45862        -0.18676
H         36.29044         9.97426        -0.04894
H         36.48785        34.16883        -0.01192
H         35.18974        36.01077        -0.25050
H         37.41843        12.02387        -1.07045
H         38.57453        14.14263        -1.48870
H         39.00180        29.45196        -0.58942
H         37.89141        31.66809         0.52640
H         39.77588        16.21855        -1.86500
H         41.05950        18.43474        -2.34805
H         41.24535        25.18352        -1.79725
H         40.07681        27.40723        -1.22097
H         42.39973        20.53504        -2.12805
H         42.43758        22.97924        -2.00787
