         651
 CSIRO Nanostructure Databank - Neutral Graphene Oxide Data Set
C          7.45934        32.70096         3.09479
C          7.50636        34.05970         2.95836
C          9.03392        28.25737         1.74249
C          9.22264        29.61088         1.72375
C          8.25493        30.47077         2.38115
C          9.68795        32.41721         1.97635
C          8.43764        31.82278         2.49280
C          9.73791        33.94398         1.83583
C          8.53651        34.72448         2.19519
C          9.36763        36.63937         0.87205
C          8.40598        36.02093         1.74932
C          9.18212        37.94003         0.41761
C         11.30048        23.80501         2.17349
C         10.80212        24.97410         1.54003
C         10.22603        26.12482         2.01611
C         11.18920        27.91044         0.43639
C          9.92503        27.27100         1.04949
C         11.30040        29.35841         0.35612
C         10.36043        30.19143         1.02247
C         11.56258        32.24520         0.36879
C         10.55568        31.60922         1.09789
C         11.66343        33.66570         0.31017
C         10.69700        34.50794         0.88363
C         11.41204        36.41265        -0.48849
C         10.53566        35.86956         0.44680
C         11.09624        37.68171        -1.14220
C         10.05221        38.54080        -0.55093
C         10.95287        40.47166        -1.82360
C          9.94020        39.84310        -0.99774
C         10.81431        41.83179        -2.15895
C         13.48459        19.43759         1.82116
C         13.49484        20.84590         1.53207
C         12.46183        21.68192         1.98775
C         13.46732        23.63104         0.85090
C         12.37700        23.04645         1.61649
C         13.44221        24.99241         0.36382
C         12.27489        25.69476         0.09188
C         13.37303        27.70093        -0.86092
C         12.21695        27.13057        -0.07135
C         13.51209        29.21286        -0.77649
C         12.42683        29.96439        -0.29934
C         13.69148        32.06062        -0.99006
C         12.36255        31.43582        -0.62326
C         13.77932        33.45179        -1.11447
C         12.78749        34.28231        -0.41069
C         13.59478        36.26045        -1.84681
C         12.66724        35.73593        -0.81904
C         13.44911        37.60060        -2.25109
C         12.18603        38.33415        -2.00007
C         13.15250        40.41345        -3.10567
C         12.13913        39.77482        -2.17254
C         13.27592        41.93698        -2.90293
C         11.96831        42.64266        -2.56140
C         13.23433        44.63776        -1.87198
C         12.02557        44.00424        -2.03054
C         13.26992        46.05457        -1.54546
C         15.69027        15.03909         2.00957
C         15.67514        16.41227         1.68337
C         14.51832        17.19727         1.79524
C         15.61031        19.10867         0.59441
C         14.51604        18.58354         1.45783
C         15.66277        20.58235         0.32251
C         14.59912        21.44785         0.85757
C         15.86275        23.40633         0.06021
C         14.64735        22.84055         0.63367
C         15.99281        24.87841         0.01888
C         14.71421        25.71896         0.15910
C         15.85520        27.51741        -1.15190
C         14.67278        27.00214        -0.53701
C         15.86661        29.01470        -1.60182
C         14.70452        29.83071        -1.24842
C         15.91876        31.90640        -1.98185
C         14.79475        31.26805        -1.37377
C         15.90704        33.28082        -2.30128
C         14.82934        34.07442        -1.84302
C         15.70457        36.06025        -3.06133
C         14.73441        35.48280        -2.21518
C         15.49184        37.38371        -3.48070
C         14.45995        38.21995        -3.01627
C         15.84753        40.45565        -2.95726
C         14.50482        39.69642        -3.18499
C         15.77761        41.83170        -2.39764
C         14.53784        42.58245        -2.44386
C         15.73814        44.64335        -1.60457
C         14.48010        43.90103        -1.98963
C         15.45801        45.69284        -0.49615
C         14.36949        46.62525        -0.96795
C         15.58164        48.62996        -0.17804
C         14.49361        48.04098        -0.78716
C         15.66545        50.09982        -0.23444
C         18.15688        10.71944         2.39114
C         18.10407        12.09684         2.24960
C         16.89689        12.86858         2.20075
C         18.11858        14.92847         1.53103
C         16.86332        14.24994         1.94006
C         18.19158        16.38568         1.32759
C         16.95165        17.21836         1.51964
C         18.16040        19.06316         0.27365
C         16.85734        18.26261         0.39037
C         18.12654        20.45135        -0.14459
C         16.93854        21.19495        -0.10047
C         18.11364        23.20166        -1.06621
C         16.93887        22.60699        -0.33215
C         18.40379        24.65149        -0.70006
C         17.15323        25.49016        -0.65292
C         18.21885        27.34518        -1.88552
C         17.14030        26.79751        -1.07764
C         18.50309        28.85005        -1.88019
C         17.20779        29.68427        -1.68674
C         18.38489        31.72825        -2.66203
C         17.18070        31.14202        -2.04365
C         18.33276        33.12003        -3.25494
C         16.95989        33.81942        -3.25044
C         18.26891        36.10339        -3.00654
C         16.99907        35.38410        -3.53531
C         18.33848        37.49334        -2.86259
C         17.29781        38.41291        -3.26675
C         18.21739        40.26305        -2.03187
C         17.10464        39.67794        -2.72226
C         18.14850        41.62005        -1.63106
C         16.92530        42.38431        -1.78294
C         17.98312        44.26903        -0.60206
C         16.88721        43.72593        -1.25497
C         17.85933        45.48144         0.30784
C         16.70740        46.41396        -0.04645
C         17.90733        48.38353         0.79243
C         16.68932        47.75507         0.28200
C         17.95357        49.63022         1.33924
C         16.32023        50.86788         0.68228
C         17.83289        52.72522         1.35806
C         16.70125        52.27483         0.74546
C         17.86108        54.19212         1.73448
C         20.79035         6.57280         3.29672
C         20.66889         7.85877         2.73926
C         19.46923         8.59786         2.74409
C         20.60990        10.65418         2.09307
C         19.41611         9.98596         2.39953
C         20.63623        12.12513         1.80418
C         19.41409        12.84340         2.40032
C         20.65036        15.00929         1.87068
C         19.39810        14.19866         1.73596
C         20.68571        16.24854         0.98399
C         19.36451        17.00929         0.98294
C         20.64795        18.99778         0.11908
C         19.35069        18.37966         0.49015
C         20.64276        20.39728        -0.40177
C         19.36607        21.14466        -0.49659
C         20.68877        23.05231        -1.51446
C         19.40193        22.43625        -0.93934
C         20.68893        24.56654        -1.72000
C         19.44289        25.18472        -1.66885
C         20.99182        27.40028        -2.94430
C         19.16010        26.42738        -2.30924
C         20.83739        28.79744        -2.91251
C         19.43927        29.43555        -2.99553
C         20.77821        31.70580        -3.24938
C         19.49573        30.97982        -2.87811
C         20.76607        33.19908        -2.93556
C         19.58997        33.89056        -3.02108
C         20.78813        36.04814        -2.56505
C         19.59344        35.39233        -3.22080
C         20.74133        37.41863        -2.22213
C         19.51499        38.15240        -2.32119
C         20.65122        40.16463        -1.48122
C         19.45101        39.51013        -1.93412
C         20.60469        41.57773        -1.16533
C         19.32803        42.27753        -1.16324
C         20.45310        44.33509        -0.40118
C         19.24305        43.58980        -0.65150
C         20.48013        45.63364         0.07779
C         19.19663        46.20473         0.54276
C         20.45202        48.42244         0.90637
C         19.18861        47.66360         0.79774
C         20.42188        49.78186         1.26408
C         19.12973        50.54560         1.09648
C         20.36701        52.62807         1.78994
C         19.02482        51.88057         1.86486
C         20.41997        54.03683         1.74198
C         19.21805        54.83963         1.65099
C         20.53537        56.91417         1.49677
C         19.28402        56.20275         1.56529
C         20.54577        58.29618         1.47749
C         23.34962         3.89750         3.89805
C         22.12499         4.57544         3.85982
C         23.22708         6.48411         2.78632
C         22.02951         5.87118         3.30663
C         23.18328         7.78634         2.22890
C         21.86334         8.43475         2.08563
C         23.12590        10.66209         1.60258
C         21.82660         9.92029         1.76554
C         23.20302        12.04391         2.19988
C         21.91160        12.80179         2.32266
C         23.24589        15.00994         2.10361
C         21.91544        14.31390         2.27374
C         23.20780        16.46249         1.66633
C         21.87917        17.12987         1.29536
C         23.11463        19.11727         0.55583
C         21.91628        18.44139         0.64791
C         23.11326        20.58369         0.30087
C         21.85346        21.24563        -0.18508
C         23.07389        23.45088        -0.47374
C         21.91917        22.54896        -0.82253
C         23.10372        24.73283        -1.28228
C         21.97698        25.27608        -1.89039
C         23.20540        27.48051        -2.10533
C         22.06747        26.69023        -2.35781
C         23.21188        28.86366        -2.38681
C         21.99851        29.53782        -2.66782
C         23.21105        31.74691        -2.36349
C         21.93288        31.00408        -2.57060
C         23.23033        33.21829        -2.52914
C         22.02681        33.90194        -2.67708
C         23.19007        36.00327        -2.01662
C         21.99477        35.32993        -2.44002
C         23.15576        37.38158        -1.75199
C         21.93781        38.09833        -1.83241
C         23.12246        40.16326        -1.07183
C         21.87987        39.48559        -1.49633
C         23.08085        41.63238        -0.76274
C         21.78007        42.29314        -0.98218
C         22.95342        44.55722        -0.85119
C         21.68341        43.75695        -0.92694
C         22.95814        45.78761        -0.03451
C         21.71971        46.35579         0.30935
C         22.82409        48.33536         1.42292
C         21.66895        47.69983         0.89818
C         22.77916        49.67716         1.86462
C         21.59229        50.43273         1.69659
C         22.82355        52.54768         2.06606
C         21.58174        51.88527         1.89846
C         22.88232        53.97529         1.97296
C         21.68238        54.71875         1.76043
C         23.01192        56.78151         1.63291
C         21.75959        56.13391         1.58249
C         23.11366        58.21180         1.33839
C         21.77913        59.04565         1.26657
C         23.11710        61.06404         1.70939
C         21.89205        60.46455         1.59273
C         24.50920         4.48393         3.40335
C         25.63747         6.41712         2.32171
C         24.47258         5.79076         2.84518
C         25.59356         7.70770         1.81138
C         24.35956         8.41483         1.77506
C         25.69571        10.57463         1.54382
C         24.38859         9.86774         1.46915
C         25.73889        11.98790         1.64823
C         24.59839        12.70768         2.36402
C         25.78622        14.93718         1.65552
C         24.53354        14.23783         2.12761
C         25.62363        16.23474         0.90688
C         24.41927        17.08757         1.11237
C         25.53902        19.03107         0.00661
C         24.36375        18.39018         0.65158
C         25.67286        20.51569         0.00274
C         24.40089        21.32346         0.09088
C         25.62335        23.23899        -0.82906
C         24.40651        22.67259        -0.49506
C         25.66985        24.71287        -0.99178
C         24.37090        25.48825        -1.09128
C         25.68707        27.32445        -2.36837
C         24.43907        26.96225        -1.43974
C         25.72530        28.84854        -2.38250
C         24.47019        29.59795        -2.36676
C         25.70164        31.74889        -2.48654
C         24.45808        30.97716        -2.43412
C         25.67056        33.17466        -2.07225
C         24.45982        33.90151        -2.21511
C         25.64563        35.92273        -1.49011
C         24.44955        35.28977        -1.91692
C         25.57864        37.32573        -0.95618
C         24.44678        38.09686        -1.57985
C         25.70461        40.25668        -0.94459
C         24.45634        39.56982        -1.38406
C         25.74119        41.77050        -1.14497
C         24.34285        42.41642        -0.90242
C         25.95547        44.72124        -0.37968
C         24.16659        43.74290        -1.09905
C         25.53740        45.66753         0.52446
C         24.17289        46.24375         0.70335
C         25.24867        48.16984         2.17168
C         24.04442        47.50588         1.55746
C         25.16326        49.53719         2.75719
C         23.85048        50.32623         2.74091
C         25.23099        52.43874         2.56982
C         24.02734        51.79739         2.40052
C         25.36359        53.86418         2.19961
C         24.12544        54.65947         2.08217
C         25.45563        56.77700         2.11587
C         24.20068        56.05787         1.95028
C         25.49406        58.14694         2.03195
C         24.33673        58.93355         1.70245
C         24.33390        60.31769         1.74566
C         26.82959         8.32448         1.18854
C         28.06994        10.50595         1.03649
C         26.87148         9.83788         1.27243
C         28.11995        11.92621         1.00751
C         26.94348        12.65747         1.37423
C         28.17410        14.77026         0.68135
C         27.01777        14.13425         1.35497
C         28.18324        16.15804         0.44616
C         26.85981        16.82445         0.28569
C         28.06585        19.01608        -0.21093
C         26.81763        18.25576        -0.14811
C         28.08002        20.33624        -0.61545
C         26.87246        21.11547        -0.61622
C         28.14227        23.19266        -1.06412
C         26.87924        22.50107        -0.85836
C         28.16211        24.62106        -1.27053
C         26.95016        25.36003        -1.36700
C         28.20175        27.32883        -2.04837
C         26.96400        26.69382        -1.80496
C         28.22194        28.73206        -2.61253
C         26.92639        29.48669        -2.39472
C         28.07122        31.55604        -1.60144
C         26.97094        30.96503        -2.40563
C         27.99798        32.99636        -1.20517
C         26.83401        33.80772        -1.61480
C         28.07385        35.88903        -0.92972
C         26.84469        35.20405        -1.33230
C         28.07426        37.33756        -0.76873
C         26.88906        38.07488        -0.89186
C         28.12698        40.19842        -0.41663
C         26.87565        39.51901        -0.76124
C         28.13120        41.59389        -0.18777
C         26.95010        42.42452        -0.41822
C         28.21511        44.42840         0.54463
C         27.03550        43.77865        -0.13029
C         27.76406        45.30184         1.71653
C         26.67525        46.24911         1.29071
C         27.76414        48.10587         2.69255
C         26.59630        47.56977         1.93489
C         27.76208        49.61106         2.62760
C         26.44952        50.25713         3.05966
C         27.77905        52.43695         3.05308
C         26.45660        51.74794         3.03479
C         27.84637        53.78627         2.87270
C         26.68777        54.55508         2.35613
C         26.72903        56.06385         2.52427
C         29.31674        12.60357         0.64814
C         30.53716        14.71224         0.09417
C         29.36530        14.01612         0.48273
C         30.60694        16.12515         0.06366
C         29.38652        16.86780         0.24269
C         30.47185        19.19849         0.25575
C         29.24763        18.37870         0.46006
C         30.59345        20.35387        -0.45842
C         29.36558        20.96884        -1.10360
C         30.62015        23.13928        -1.13004
C         29.36952        22.48228        -1.03478
C         30.64798        24.55620        -1.38608
C         29.40269        25.28388        -1.51016
C         30.69454        27.30481        -2.42797
C         29.41598        26.64709        -1.89956
C         30.66294        28.81045        -2.21000
C         29.47829        29.47239        -2.18582
C         30.57769        31.61709        -1.25738
C         29.37635        30.82558        -1.57338
C         30.54252        32.94233        -0.88672
C         29.26346        33.69031        -0.77512
C         30.48323        35.82677        -0.39944
C         29.26552        35.17157        -0.76995
C         30.46979        37.20877        -0.16194
C         29.30615        38.00668        -0.40591
C         30.58241        40.09017         0.07151
C         29.32303        39.42525        -0.21903
C         30.57917        41.50493         0.36595
C         29.34295        42.19849         0.33615
C         30.32440        43.97475         1.77229
C         29.30466        43.48005         0.93387
C         30.00705        45.12136         2.60953
C         28.94298        45.96947         2.40762
C         30.19327        48.10708         3.09314
C         28.93513        47.37328         2.82059
C         30.15555        49.47089         3.33614
C         28.96736        50.27188         3.23783
C         28.94915        51.64000         3.38607
C         31.87945        16.71051        -0.31312
C         33.22738        18.83661        -0.66568
C         32.27244        18.02619        -0.04052
C         33.12977        20.27802        -0.65683
C         31.88077        21.00156        -0.65461
C         33.10249        23.06331        -1.16085
C         31.87255        22.38965        -0.99393
C         33.11336        24.48289        -1.51085
C         31.86322        25.24756        -1.53003
C         33.10652        27.36898        -1.64149
C         31.93990        26.66602        -1.83176
C         33.24919        28.81069        -2.09145
C         31.93032        29.56865        -2.05521
C         33.02203        31.48103        -0.70078
C         31.88056        30.96471        -1.53008
C         33.00539        32.97760        -0.58101
C         31.77296        33.66917        -0.57974
C         32.85682        35.63553         0.36779
C         31.70944        35.05951        -0.23603
C         32.90347        37.06499         0.81612
C         31.65553        37.84547         0.44978
C         33.05617        39.81451         0.09343
C         31.74314        39.29752         0.23307
C         33.02581        41.84126         0.44576
C         31.73820        42.25162         0.82856
C         32.88383        44.06430         2.08815
C         31.64753        43.43381         1.64915
C         33.09188        45.45330         2.73839
C         31.84745        46.21390         3.07893
C         31.52467        47.51577         2.88542
C         34.33343        21.00283        -0.81225
C         35.58422        23.13640        -0.85671
C         34.34826        22.39634        -0.96886
C         35.63145        24.51160        -0.94304
C         34.41681        25.23577        -1.38599
C         35.66511        27.34953        -1.58314
C         34.34866        26.71667        -1.07330
C         35.65510        28.84251        -1.36380
C         34.41833        29.56213        -1.45966
C         35.55582        31.66869        -0.80740
C         34.36286        30.90322        -1.05622
C         35.53704        32.99813        -0.33072
C         34.19865        33.58883        -0.12232
C         35.79363        35.86713         0.83502
C         33.96100        34.79305         0.56844
C         35.58275        37.21501         0.70762
C         34.26298        37.85046         1.15241
C         35.43408        40.08936         0.61583
C         34.23550        39.26620         0.56574
C         35.40676        41.48265         0.89534
C         34.22088        42.24799         1.07760
C         34.10445        43.43663         1.85833
C         36.81343        25.29521        -0.70381
C         38.03273        27.42685        -0.69453
C         36.85676        26.65959        -0.93829
C         38.05414        28.81433        -0.84352
C         36.83187        29.51997        -1.11971
C         38.09758        31.74681        -1.06429
C         36.79801        31.00553        -1.37542
C         38.06926        33.21987        -0.74851
C         36.76901        33.81225        -0.26204
C         38.09062        35.93172         0.13755
C         36.86461        35.12770         0.21205
C         37.98860        37.35589         0.25598
C         36.75892        38.02171         0.41339
C         36.68655        39.42806         0.52060
C         39.22474        29.58845        -0.51352
C         40.31079        31.64200         0.18395
C         39.26672        30.96061        -0.56943
C         40.31099        32.97140         0.42081
C         39.43628        33.88664        -0.40329
C         39.31181        35.29997         0.07415
O         20.77928        19.29849        -1.34409
O         12.53010        42.61932        -3.94728
O         18.81377        14.19470         0.40852
O         25.29343        21.16612         1.25357
O         22.28545        31.44004        -1.22611
O         22.42455        17.21852         2.63701
O         32.06882        30.74446        -2.96251
O         17.42401        30.66008        -0.63012
O         26.59922        31.58454        -3.67111
O         24.67056        38.98049        -2.72268
O         33.96047        24.84088        -2.69202
O         21.60712         8.90943         0.72646
O         16.77904        50.17979         1.83066
O         23.68174        10.43291         0.27983
O         15.65750        25.56832         1.27530
O         25.51971        26.80815        -3.63219
O         30.88631        45.37775         3.66862
O         22.51884        58.62360         0.07916
O         15.26419        40.25745        -4.28756
O         17.73670        23.28410        -2.52038
O         25.01850        25.29468         0.21043
O         33.14935        41.00266        -0.66724
O         15.10115        19.61473        -0.68078
O         25.91643        18.47804        -1.28700
O         34.86022        35.13802         1.56918
O         24.03932        14.89822         3.33663
O         17.01888        17.86010         2.77417
O         38.20995        32.76153        -2.13837
O         31.90576        37.37992         1.84923
O         26.27034        54.10246         1.02725
O         28.39443        30.71397        -0.45785
O         11.07473        24.98190         0.13427
O         19.91644        26.67936        -3.45316
O         25.93868        16.00717        -0.51475
O         25.24489        44.49992        -1.56465
O         26.35385        50.96752         4.30963
O         26.82016        14.85636         2.66689
O         11.03602        37.60903        -2.60171
O         15.64571        27.98620        -2.59266
O         23.07340        40.63926         0.32033
O         10.37952        33.24619         2.95680
O         27.05209        47.46276         0.51725
O         19.23621        46.66112         1.94143
O         25.04264        48.35154         3.62003
O         18.12152        32.84522        -4.73688
O         21.09579        15.04843         3.24741
O         16.45566        37.97512        -4.30299
O         22.25090        21.27473         1.27736
O         31.55518        18.70456         0.98697
O         13.42419        35.33764         0.38853
O         23.83996        46.19859         2.16672
O         22.16119        44.55385        -2.09296
O         28.31118        33.17035         0.21727
O         22.47039        12.12579         3.47075
O         16.68202        33.15968        -4.57231
O         19.82420        35.54543        -4.67340
H         18.93236        35.54469        -5.10955
O         25.15265        37.19066         0.44818
H         25.79739        36.60987         0.90612
O         30.71301        27.04360        -3.85180
H         29.93574        27.52419        -4.23575
O         35.79144        27.11033        -2.99526
H         35.08209        27.62300        -3.45957
O         12.56476        40.18827        -4.41349
H         13.15028        40.62578        -5.06952
O         22.85208        23.87756         0.90527
H         22.74422        23.05584         1.44794
O         17.88871        21.97107        -3.09737
H         18.86298        21.93605        -3.30274
O         13.03487        27.40587        -2.26063
H         13.85066        27.58851        -2.79191
O         20.94008        15.76346        -0.35976
H         20.16243        15.21186        -0.61935
O         18.98603        24.63250         0.62454
H         19.12986        25.55567         0.92082
O         34.34640        26.89502         0.36769
H         33.46595        26.64424         0.71699
O         40.21609        34.07308        -1.62667
H         39.80701        33.49328        -2.31532
O         28.02167         7.76499         1.74666
H         28.08535         8.04611         2.68224
O         27.80404        49.94743         1.19377
H         28.19834        49.19357         0.70086
O         27.16201        44.39947         2.67839
H         26.84785        44.91668         3.44964
O         20.99298        31.56948        -4.67926
H         20.31159        32.10967        -5.13656
O         33.61456        28.71472        -3.50629
H         33.39693        29.58618        -3.91237
O          9.13351        26.76281        -0.05863
H          9.64387        26.01835        -0.45798
O         17.49738        44.86514         1.59238
H         17.87388        45.46181         2.28763
O         28.93578        18.48640         1.89707
H         29.77802        18.33225         2.38024
O         20.66790        12.28825         0.37060
H         19.84934        11.90844        -0.01308
O         28.82137        45.33054        -0.42735
H         29.02688        44.81700        -1.23634
O         18.83555        29.17178        -4.26745
H         19.44727        29.47616        -4.97033
O         19.65333        12.96134         3.81412
H         19.01346        13.59419         4.19965
O         24.96907        12.53116         3.74504
H         24.46874        13.20504         4.26275
O         28.33458        28.55430        -4.06819
H         27.51550        28.08840        -4.35876
O         20.71677        22.53036        -2.91299
H         21.39372        23.03527        -3.41398
O         14.93480        44.97964         0.65623
H         15.70493        44.74408         1.23359
O         16.17496        45.40188        -2.77296
H         16.23427        44.78413        -3.53193
O         36.58455        31.05631        -2.82549
H         36.90639        31.93735        -3.12894
O         16.70592        17.54630        -0.85349
H         16.28840        18.16817        -1.49256
O         19.26905        28.97221        -0.65668
H         18.96014        29.78682        -0.18912
O         18.80909        51.54539         3.25203
H         18.85655        52.36407         3.78674
O         19.04812        50.86645        -0.33130
H         19.86121        51.35845        -0.57450
O         34.30973        37.96284         2.58686
H         33.37713        37.94669         2.90746
O         26.01839        41.94648        -2.56310
H         25.93249        42.90779        -2.75519
O         11.56851        31.52393        -1.87242
H         11.90003        30.83021        -2.48263
O         24.62701        27.72112        -0.24069
H         24.95287        27.09466         0.45152
O         32.71730        30.98326         0.65024
H         33.35043        31.39518         1.27582
O         29.40225        20.64334        -2.53148
H         30.15588        21.12853        -2.92984
O         23.32158        50.29116         4.08871
H         23.56905        49.41725         4.46873
O         33.94190        46.23436         1.89096
H         33.51660        46.32235         1.01360
O         16.89838        54.95199         1.00252
H         17.23113        55.07466         0.09001
O         17.08684        35.55583        -4.96883
H         16.65953        34.77225        -5.39281
O         27.02381        56.37010         3.90103
H         26.24675        56.13553         4.44853
H          6.61116        32.23773         3.62050
H          6.69324        34.67497         3.37137
H          8.14773        27.84650         2.24980
H          7.34607        30.00269         2.78869
H          7.50810        36.59734         2.02009
H          8.32932        38.52523         0.79330
H         10.81838        23.43023         3.08873
H          9.98448        26.23183         3.08261
H          9.11314        40.47172        -0.63505
H          9.91134        42.36677        -1.82508
H         12.65106        19.04457         2.42387
H         11.64549        21.24675         2.58289
H         11.08695        44.52308        -1.78672
H         12.39121        46.66559        -1.80179
H         14.76169        14.57286         2.37713
H         13.56787        16.73182         2.10724
H         13.69104        48.67962        -1.18802
H         15.17542        50.58501        -1.09257
H         17.22388        10.13700         2.43894
H         15.94130        12.34457         2.36155
H         15.97888        53.03680         0.40146
H         17.53517        54.23425         2.81655
H         19.90817         6.09556         3.74966
H         18.55442         8.11639         3.12129
H         18.34906        56.78111         1.51980
H         19.60387        58.84852         1.61584
H         23.39281         2.88763         4.32951
H         21.22185         4.09641         4.26433
H         23.17079        62.14531         1.90140
H         20.97133        61.03853         1.77341
H         25.46426         3.94093         3.44056
H         26.59491         5.87565         2.33088
H         26.44017        58.67176         2.23335
H         25.27140        60.85075         1.96046
H         26.83044         8.04018         0.09889
H         28.97764         9.92596         0.81532
H         28.80333        54.31620         2.99106
H         27.58662        56.46770         1.92689
H         30.22106        12.01001         0.44838
H         31.45465        14.13648        -0.09748
H         31.10458        49.99166         3.53932
H         29.86724        52.17143         3.68171
H         32.55674        16.07921        -0.90809
H         34.04871        18.38101        -1.23868
H         33.66468        45.28539         3.69159
H         32.31136        48.19584         2.52438
H         35.28870        20.46077        -0.75500
H         36.49693        22.57401        -0.60861
H         36.36697        41.94838         1.17007
H         35.01972        43.90295         2.25205
H         37.71361        24.78025        -0.33248
H         38.94372        26.90878        -0.35620
H         38.91188        37.94837         0.18012
H         37.61379        40.01929         0.50309
H         40.08820        29.05350        -0.08765
H         41.05648        30.99836         0.67639
H         41.09365        33.41887         1.05071
H         40.23701        35.89505         0.09456
