         651
 CSIRO Nanostructure Databank - Neutral Graphene Oxide Data Set
C          5.92946        31.68210        -0.45935
C          5.92685        33.04443        -0.51245
C          8.45424        27.49181        -0.16608
C          8.31633        28.80491         0.19899
C          7.12388        29.55043        -0.12417
C          8.43516        31.65927        -0.10654
C          7.11901        30.92091        -0.15054
C          8.27356        33.12496         0.18572
C          7.11558        33.81851        -0.18416
C          8.29398        36.00517        -0.02747
C          7.09855        35.23747        -0.16885
C          8.27961        37.40451        -0.08236
C         10.99822        23.28879        -0.47808
C         10.87932        24.57238         0.01756
C          9.73792        25.39896        -0.25698
C         10.71661        27.38990         0.85544
C          9.63136        26.72022         0.14600
C         10.65548        28.72714         1.16828
C          9.35673        29.50210         1.04775
C         10.64340        31.65076         1.06108
C          9.53667        30.96560         0.67619
C         10.67195        33.14335         1.06962
C          9.42562        33.88951         0.66356
C         10.75319        35.95060         0.40907
C          9.53177        35.30645         0.28383
C         10.84728        37.37113         0.03242
C          9.51990        38.16178        -0.20375
C         10.80200        40.27301         0.06848
C          9.59347        39.61210        -0.00204
C         10.85844        41.72609         0.16133
C         13.54637        19.06734        -1.10408
C         13.47522        20.43315        -0.72082
C         12.28206        21.19283        -0.83874
C         13.37471        23.09531         0.22824
C         12.19908        22.49745        -0.33388
C         13.25772        24.37712         0.96151
C         11.93613        25.11224         0.90806
C         13.13162        27.27593         1.76052
C         11.85637        26.56015         1.32071
C         13.11025        28.73926         1.76954
C         11.82202        29.43771         1.74616
C         13.10834        31.73740         1.63441
C         11.82333        30.98498         1.68084
C         13.14412        33.08745         1.33045
C         11.95598        33.85866         1.03928
C         13.16750        36.03349         0.98411
C         11.96340        35.25477         0.81113
C         13.20758        37.43650         0.81022
C         12.03826        38.14676         0.38686
C         13.30153        40.25457         0.23696
C         12.05015        39.53784         0.21273
C         13.29872        41.67872        -0.30927
C         12.02668        42.42683         0.05949
C         13.17054        44.62581         0.26189
C         12.03575        43.87961         0.17591
C         13.15163        46.14000         0.39082
C         15.81930        14.66347        -1.32182
C         15.87174        16.14000        -1.01883
C         14.73572        16.90451        -1.17556
C         15.84276        18.91713        -0.24081
C         14.69640        18.31252        -0.85797
C         15.84071        20.28366         0.04117
C         14.65265        21.05679        -0.19955
C         15.87453        23.15641         0.45436
C         14.59028        22.41481         0.20867
C         15.70510        24.45448         1.21223
C         14.50959        25.08741         1.34390
C         15.71643        27.31866         1.69009
C         14.44707        26.52240         1.78567
C         15.64311        28.79781         1.46027
C         14.34289        29.52015         1.59713
C         15.66924        31.66541         1.83272
C         14.34550        30.96306         2.08492
C         15.62067        33.14837         1.91206
C         14.46083        33.83015         1.20115
C         15.63707        36.12053         1.68672
C         14.33984        35.32392         1.51962
C         15.63449        37.49778         1.17733
C         14.45868        38.17480         0.86110
C         15.78485        40.29175         0.08437
C         14.48491        39.57673         0.46752
C         15.79310        41.75458         0.46011
C         14.56888        42.47810         0.02605
C         15.62830        44.65600         0.93879
C         14.49145        43.95117         0.25437
C         15.69127        46.11765         0.68317
C         14.52102        46.79974         0.27630
C         15.87072        48.80598        -0.15342
C         14.62066        48.14010        -0.10277
C         15.94545        50.18695        -0.55700
C         18.51131        10.58892        -2.50654
C         18.44359        12.03053        -2.27615
C         17.19203        12.72976        -1.97435
C         18.38274        14.70845        -1.09037
C         17.17520        14.01796        -1.51232
C         18.29459        16.03250        -0.51312
C         17.07044        16.71146        -0.48016
C         18.19457        18.65689         0.73307
C         16.88605        17.97074         0.33536
C         18.18389        20.12760         1.03256
C         16.97773        20.93540         0.69987
C         18.11628        22.82124         1.82490
C         16.99121        22.27251         0.96331
C         18.18082        24.36676         1.91627
C         17.00822        25.15101         1.40346
C         18.24658        27.34875         1.93098
C         17.04494        26.63532         1.46578
C         18.23885        28.79052         1.77169
C         16.94234        29.54499         1.55758
C         18.16763        31.68604         1.93979
C         16.86125        30.99901         1.83556
C         18.21441        33.18482         1.99663
C         16.90236        33.91751         1.99042
C         18.10190        35.99111         1.47059
C         16.91932        35.35992         1.66055
C         18.13402        37.46435         1.53388
C         16.93833        38.13851         0.95590
C         18.26714        40.31394         0.91893
C         17.04558        39.55953         0.51540
C         18.22248        41.76503         0.98056
C         16.93370        42.42841         0.81872
C         18.17553        44.63014         1.22419
C         16.90140        43.88374         1.13929
C         18.13222        46.09931         1.28252
C         16.93261        46.78662         0.73121
C         18.36827        48.73546         0.10702
C         17.03935        48.10723         0.26313
C         18.41536        50.15110        -0.39285
C         17.14392        50.87984        -0.62237
C         18.48623        52.86483        -1.24349
C         17.24746        52.23781        -1.04157
C         18.56818        54.10442        -1.94895
C         21.05985         6.47349        -3.53596
C         21.02348         7.91188        -3.07684
C         19.82135         8.56207        -2.99146
C         20.94222        10.56455        -2.04464
C         19.72643         9.92844        -2.53916
C         20.89976        11.87095        -1.56253
C         19.73080        12.72151        -1.77544
C         20.78573        14.63079        -0.54422
C         19.62016        14.03192        -1.09648
C         20.76315        15.97446        -0.12931
C         19.51249        16.69376        -0.07055
C         20.70985        18.72051         0.70359
C         19.49132        18.00173         0.43260
C         20.69321        20.08685         1.03934
C         19.47996        20.85189         1.14233
C         20.72506        22.92726         1.73013
C         19.45928        22.19018         1.49254
C         20.78005        24.42261         1.98101
C         19.46103        25.13502         2.16770
C         20.76571        27.32371         1.76266
C         19.52962        26.66285         2.35684
C         20.82032        28.78042         1.93525
C         19.49169        29.55915         2.03712
C         20.54650        31.64746         0.97714
C         19.41990        30.96351         1.66877
C         20.57193        33.15629         1.15151
C         19.43141        33.84835         1.47152
C         20.63959        36.03441         1.16560
C         19.34015        35.27989         1.01493
C         20.68714        37.41056         1.29035
C         19.43181        38.16971         1.47963
C         20.68556        40.30419         1.48882
C         19.41398        39.62208         1.21763
C         20.66458        41.80663         1.43041
C         19.38237        42.50149         1.19217
C         20.65178        44.67359         1.26504
C         19.38831        43.95751         1.22345
C         20.72761        46.05657         1.34040
C         19.47924        46.84486         1.33135
C         20.84869        48.81035         0.58545
C         19.57945        48.17387         0.72440
C         20.88919        50.12912         0.09907
C         19.62483        50.96107         0.00741
C         20.93448        52.79341        -1.12746
C         19.72243        52.21616        -0.84077
C         21.01928        54.06864        -1.80182
C         19.78883        54.70103        -2.24994
C         21.10888        56.45382        -3.37100
C         19.89340        55.83303        -3.12754
C         21.25664        57.46030        -4.36491
C         23.81831         4.32769        -5.06380
C         22.54431         4.86152        -4.73447
C         23.60591         6.67323        -3.49022
C         22.42868         5.99886        -3.95893
C         23.51482         7.88409        -2.76968
C         22.23781         8.54101        -2.59445
C         23.33664        10.30674        -1.19997
C         22.16561         9.80405        -2.00801
C         23.41332        11.82093        -1.11902
C         22.13412        12.56850        -1.14102
C         23.29476        14.52869        -0.08473
C         21.99744        13.77173        -0.23956
C         23.22962        15.88267         0.17662
C         21.98972        16.63619         0.21711
C         23.20328        18.74570         0.66558
C         21.97903        18.01446         0.55889
C         23.20293        20.11048         0.97340
C         21.96234        20.76692         1.49212
C         23.12896        23.00284         1.16968
C         21.96437        22.26797         1.30261
C         23.13409        24.46026         1.12227
C         21.95300        25.17663         1.44931
C         23.09739        27.34976         0.90391
C         21.89783        26.61749         1.34710
C         23.17751        28.72539         0.94323
C         22.04531        29.52910         1.48809
C         22.95149        31.62207         0.26713
C         21.90379        30.98030         1.12411
C         22.91807        33.12735         0.18597
C         21.76629        33.88052         0.75495
C         23.11034        35.99461         0.81826
C         21.82094        35.26630         0.87602
C         23.11048        37.47850         0.77169
C         21.91582        38.16330         1.09168
C         23.10840        40.30392         0.86315
C         21.92980        39.57898         1.14986
C         23.08739        41.76117         0.86362
C         21.91814        42.46234         1.06379
C         23.13639        44.51060         1.60422
C         21.92276        43.94817         0.89962
C         23.08619        45.93775         2.09111
C         22.00027        46.77983         1.39956
C         23.31786        48.93991         1.15330
C         22.07263        48.13501         1.09534
C         23.44629        50.08525         0.15812
C         22.15554        50.94129         0.15172
C         23.44261        52.84942        -0.88416
C         22.20757        51.99660        -0.97492
C         23.47693        54.07333        -1.54490
C         22.24948        54.67114        -2.02918
C         23.62040        56.53371        -3.01752
C         22.28276        56.10999        -2.47571
C         23.66341        57.85546        -3.73281
C         22.47398        58.07556        -4.64630
C         23.85661        59.54267        -6.03899
C         22.61119        59.01561        -5.69769
C         24.96555         4.92431        -4.59755
C         26.06839         6.73325        -3.34145
C         24.89837         6.11091        -3.80304
C         26.02129         7.92129        -2.58258
C         24.72387         8.52763        -2.29166
C         25.87129        10.25424        -0.85335
C         24.66014         9.70576        -1.57509
C         25.84018        11.74965        -0.59566
C         24.62195        12.44119        -0.51262
C         25.79579        14.47600         0.15095
C         24.56638        13.81174        -0.12019
C         25.77969        15.89201         0.57961
C         24.46404        16.60658         0.54365
C         25.76335        18.76894         0.53533
C         24.46477        18.06227         0.16157
C         25.67832        20.20997         0.81684
C         24.37665        20.88594         0.93652
C         25.58689        23.01924         0.79552
C         24.38211        22.29926         1.00160
C         25.55173        24.41352         0.55401
C         24.33563        25.12578         0.70717
C         25.51842        27.30596         0.07702
C         24.18373        26.55207         0.19111
C         25.52809        28.77984         0.20540
C         24.36903        29.45389         0.48844
C         25.48477        31.70152        -0.05829
C         24.25157        30.89616         0.10961
C         25.48408        33.05892        -0.12296
C         24.22264        33.83479        -0.04248
C         25.56355        36.00030         0.06691
C         24.33381        35.25326         0.41510
C         25.44296        37.48263        -0.19862
C         24.27000        38.19664         0.43508
C         25.49694        40.37451         0.13273
C         24.28811        39.61291         0.47432
C         25.49128        41.82362         0.32277
C         24.34557        42.48070         0.67700
C         25.65516        44.66856         1.08206
C         24.42305        43.85608         1.25128
C         25.63345        46.08968         1.48527
C         24.47587        46.51406         2.10731
C         25.78266        49.29904         1.85799
C         24.42834        48.66929         1.88892
C         25.76327        50.57318         1.05124
C         24.64919        51.00394         0.41490
C         25.88782        53.07328        -0.37925
C         24.57364        52.47830         0.03092
C         25.93523        54.18294        -1.21229
C         24.73393        54.74059        -1.76384
C         26.09067        56.47132        -2.94766
C         24.78409        55.92510        -2.57748
C         26.15025        57.53810        -3.87693
C         24.99519        58.14113        -4.38793
C         25.03648        59.09147        -5.42480
C         27.20036         8.56705        -2.16451
C         28.35540        10.46641        -1.14192
C         27.18097         9.77265        -1.43344
C         28.34772        11.78560        -0.60893
C         27.05932        12.44345        -0.39667
C         28.29424        14.57726        -0.07540
C         27.02169        13.81757        -0.07454
C         28.29889        16.01182         0.33643
C         27.03120        16.68929         0.64278
C         28.22635        18.82042         1.22535
C         27.02066        18.04119         0.87932
C         28.10642        20.17488         1.49102
C         26.79400        20.92331         1.52316
C         28.18783        22.95383         0.68994
C         26.86719        22.26550         0.81539
C         28.18064        24.42361         0.41050
C         26.83966        25.09724         0.21435
C         28.11506        27.31138         0.33443
C         26.84096        26.58825         0.10800
C         28.15157        28.73275        -0.20222
C         26.78131        29.46456        -0.23473
C         27.99096        31.71694         0.03675
C         26.75595        30.96335        -0.27786
C         28.00238        33.09211         0.00455
C         26.75632        33.83200        -0.46502
C         28.04333        35.98368         0.16149
C         26.72092        35.30491        -0.06630
C         28.02422        37.50753        -0.02815
C         26.73001        38.24946         0.00218
C         27.91423        40.43818        -0.52726
C         26.66174        39.71771        -0.21106
C         27.91706        41.93960        -0.38188
C         26.82289        42.52537         0.50002
C         27.99285        44.84406         0.36882
C         26.76365        44.04493         0.59003
C         28.06073        46.23565         0.91382
C         26.87294        46.91563         1.33560
C         28.17385        49.02095         1.28012
C         26.93664        48.34589         1.45498
C         28.27503        50.51628         1.22628
C         27.02537        51.34774         1.09193
C         28.38562        53.11696        -0.15113
C         27.06870        52.75532         0.50269
C         28.40427        54.22810        -1.02302
C         27.22314        54.80060        -1.52890
C         27.25663        55.89935        -2.41629
C         29.55221        12.47467        -0.40752
C         30.76899        14.60940        -0.05636
C         29.59235        13.86141        -0.10556
C         30.80170        16.01418         0.24281
C         29.56658        16.63593         0.80344
C         30.86122        18.77556         1.11092
C         29.54836        18.07023         1.27131
C         31.08352        20.04758         1.65138
C         29.20686        21.06466         1.84796
C         30.60792        23.13313         1.50376
C         29.34910        22.34775         1.37725
C         30.57916        24.58427         1.12620
C         29.39657        25.21466         0.76506
C         30.54497        27.43648         0.76834
C         29.31483        26.66476         0.61238
C         30.46130        28.89182         0.74577
C         29.26130        29.53038         0.44949
C         30.42605        31.81284         0.83956
C         29.13178        30.97968         0.59105
C         30.44867        33.21606         0.39292
C         29.24692        33.82180         0.09119
C         30.53137        35.95812        -0.52859
C         29.23432        35.22573        -0.38285
C         30.52814        37.45970        -0.66616
C         29.23593        38.19639        -0.57431
C         30.53390        40.37620        -0.42381
C         29.22803        39.69677        -0.63263
C         30.46322        41.82533        -0.09584
C         29.23251        42.64459        -0.40635
C         30.58639        44.78588         0.05758
C         29.24559        44.12977        -0.08983
C         30.58173        46.24176         0.45712
C         29.30261        46.90715         0.83912
C         30.67543        48.96752         1.06105
C         29.37289        48.29592         1.08150
C         30.71632        50.37757         0.85788
C         29.54891        51.11898         0.74766
C         29.54931        52.40774         0.14824
C         31.90407        16.81178        -0.00050
C         33.00223        19.05516        -0.01509
C         31.92218        18.21031         0.35167
C         33.02351        20.42130         0.29635
C         32.05516        20.94908         1.18044
C         33.25953        23.19377         1.35473
C         31.96573        22.40290         1.49304
C         33.07071        24.69235         1.17734
C         31.84468        25.33021         1.12017
C         32.99391        27.56748         0.92848
C         31.76977        26.78786         0.95989
C         32.93177        28.95687         0.90114
C         31.67877        29.67098         0.93459
C         32.88621        31.88362         1.06330
C         31.67006        31.06571         0.88403
C         32.91859        33.30469         0.67240
C         31.71518        33.93881         0.29183
C         32.98476        36.03099        -0.13142
C         31.77127        35.29347        -0.11511
C         32.96264        37.48724        -0.33858
C         31.79333        38.20729        -0.46912
C         32.98938        40.37998        -0.06450
C         31.73056        39.67254        -0.33991
C         33.00468        41.77458         0.18116
C         31.74991        42.53407         0.27163
C         33.02485        44.65150         0.55477
C         31.80397        44.00167         0.27496
C         33.02724        46.06606         0.85051
C         31.86628        46.82330         0.91380
C         31.85828        48.23205         1.13450
C         34.04740        21.31899        -0.35151
C         35.33914        23.38626         0.03270
C         34.23377        22.65944         0.31982
C         35.51913        24.76553         0.45947
C         34.38634        25.44972         1.21593
C         35.44620        27.57682         0.56797
C         34.28507        26.90157         0.82984
C         35.47174        29.04346         0.50258
C         34.16229        29.74281         0.69352
C         35.44073        31.92399         0.95552
C         34.18695        31.16652         1.10875
C         35.41069        33.28887         0.81355
C         34.15411        33.98592         0.54330
C         35.52087        36.01169        -0.16021
C         34.19276        35.34058         0.14297
C         35.42452        37.49822         0.25206
C         34.27654        38.21866        -0.46984
C         35.45216        40.35641         0.09912
C         34.21460        39.67594        -0.07562
C         35.45085        41.74488         0.30541
C         34.23551        42.47869         0.35326
C         34.22009        43.88302         0.59752
C         36.66470        25.43356         0.16570
C         37.96456        27.64722         0.68347
C         36.74059        26.93575         0.14544
C         37.95159        29.04101         0.88555
C         36.72091        29.74276         0.82484
C         37.93445        31.92449         1.21579
C         36.66078        31.14388         1.35849
C         37.81407        33.29303         1.33987
C         36.65808        34.04652         0.90152
C         37.99450        36.08823         0.18098
C         36.75152        35.35873         0.46070
C         37.93282        37.45711        -0.06410
C         36.73057        38.23411         0.04022
C         36.69992        39.60883         0.01674
C         39.17450        29.82503         1.01303
C         40.42472        31.90895         0.69299
C         39.19106        31.21805         1.07836
C         40.60635        33.21983         0.34002
C         39.63470        34.26782         0.60423
C         39.25927        35.38522        -0.08759
O         27.63263        24.62767        -0.93066
O         38.90498        34.03538         1.79004
O         28.47550        40.07711        -1.83334
O         26.07349        19.77375        -0.52418
O         29.57310        16.94883         2.23047
O         18.66005        49.08770        -1.33846
O         34.72994        29.61866        -0.67024
O         29.75317        37.77793        -1.87474
O         26.20859        26.96966        -1.18568
O          9.74965        33.65882         2.10316
O         24.04312        35.43967         1.85166
O         18.62428        46.71500         2.51850
O         30.80434        42.03093         1.32725
O         22.40092        30.61151         2.42952
O         28.43131        42.49515        -1.61510
O         12.26152        24.25203         2.03933
O         17.76959        29.24510         0.38714
O         27.73209        51.27148         2.36989
O         14.89466        43.43817        -1.06092
O         28.30431        15.66548        -1.09670
O         14.75597        35.82284         2.81494
O         27.63041        22.17364        -0.42337
O         28.41517        44.85017        -1.04319
O         17.29077        38.47716        -0.45653
O         10.36291        37.66819        -1.30912
O         15.19994        26.88082         2.99127
O         14.92184        29.23568         0.25697
O         33.52666        31.51279         2.37294
O         26.67392        30.17900        -1.51527
O         17.28606        25.93437         0.17593
O         29.81675        35.36767        -1.68818
O         23.25546        30.98904        -0.99499
O         24.99457        16.18710         1.82658
O         27.52365        38.08222         1.23607
O         23.04568        12.62712        -2.29781
O         20.28388        29.24187         3.21398
O         18.61880        24.66885         3.27736
O         15.96817        44.19562         2.27250
O         30.20449        20.49182         2.64661
O         29.50451        31.48702         1.92008
O         11.52403        30.29329         2.93634
O         20.72192        41.08945         2.72456
O         18.70867        37.94495         2.78600
O         18.07754        19.14653         2.12380
O         23.28361        33.64186        -1.14308
O         16.06563        33.67539         3.18380
O         24.45336        47.67664         2.88227
O         18.38787        32.43541         3.23602
O         30.72611        45.85105        -0.95124
O         31.33215        22.81378         2.74294
O         19.31702        12.79238        -3.18246
O         20.98382        23.49380         3.09602
O         12.15105        26.74067         2.72940
O         26.86835        33.92724        -1.86795
O         23.82378        43.72865         2.62360
O         26.04766        49.67633         3.23580
H         25.72721        48.93425         3.79585
O         26.44528        21.17494         2.90189
H         26.45479        20.32875         3.39580
O         36.85822        27.23803        -1.30558
H         36.44818        28.11664        -1.46796
O         26.92689        53.65401         1.66588
H         27.43068        53.22150         2.39743
O         25.17015        37.57903        -1.63762
H         25.68215        36.88260        -2.10481
O         13.25949        41.52074        -1.75033
H         14.14485        41.17258        -2.01634
O         19.67520        26.87048         3.79067
H         19.06455        26.24527         4.24301
O         35.09983        37.54264         1.66005
H         35.86510        37.19697         2.16518
O         33.93465        22.97986         2.64588
H         33.22235        22.98793         3.32766
O         22.10632        56.91363        -1.25349
H         22.44188        57.81913        -1.46205
O         36.50505        30.93360         2.82808
H         35.55111        31.01550         3.05551
O         20.26395        31.46180        -0.46189
H         19.32699        31.69178        -0.63941
O         16.26712        17.47322         1.56335
H         16.56684        18.07934         2.28466
O         28.56576        28.55669        -1.58514
H         27.80801        28.14352        -2.05873
O         19.35553        51.40619         1.37208
H         20.21557        51.74050         1.73325
O         22.02135        20.58177         2.95423
H         21.35433        21.17859         3.35952
O          8.93364        31.62968        -1.50568
H          8.21534        31.97617        -2.07809
O         33.63000        21.57746        -1.70682
H         33.39164        20.72366        -2.12310
O         22.05286        51.63514         1.42374
H         22.80923        52.27248         1.53637
O         14.26746        30.84507         3.52960
H         14.32012        31.74185         3.92401
O         15.78136        40.30331        -1.38080
H         16.18905        39.44856        -1.66123
O         28.27094        35.75420         1.59407
H         27.68972        36.38101         2.08663
O          8.80864        29.53406         2.40476
H          9.53111        29.85595         2.99620
O         14.83064        33.76420        -0.21064
H         14.06398        34.05595        -0.74828
O         12.23448        46.70205        -0.55057
H         12.47403        46.37806        -1.44303
O         25.79975         9.64826         0.50491
H         26.01781         8.69586         0.40825
O         19.14027        35.18664        -0.45083
H         19.96532        34.82501        -0.84387
O         27.28428        42.10554         1.83399
H         26.56208        42.27451         2.47719
O         21.71016        13.18253         1.07685
H         21.69956        13.90734         1.73775
O         23.67813        26.38294        -1.16253
H         24.46465        26.32972        -1.75551
O         20.09123         6.23600        -4.56314
H         20.32312         6.78965        -5.33648
O         24.36591        18.04372        -1.28696
H         24.82456        18.85722        -1.60896
O         22.63276        45.88830         3.47031
H         23.06263        45.10768         3.88725
O         24.25339        53.17459         1.31929
H         25.12108        53.43778         1.73329
O         22.17000        44.25764        -0.51421
H         21.40975        43.93241        -1.04071
O         22.28370        51.27630        -2.26509
H         22.30193        51.95098        -2.97722
O         23.06701         9.86699         0.17891
H         23.93744         9.83949         0.65116
O         23.68836        49.42294        -1.10183
H         23.35682        49.98925        -1.84054
O         16.31684        23.59082        -0.88453
H         16.33469        22.79865        -1.46253
O         17.77414        22.34016         3.15282
H         18.31412        22.85918         3.79373
O         34.58220        38.22888        -1.90649
H         33.80689        38.60144        -2.37857
O         34.79239        25.48981         2.62128
H         34.75816        24.55037         2.93823
O         23.51527        58.88466        -2.67113
H         23.53249        59.75885        -3.11772
O         14.97587        14.39367        -2.44833
H         15.43132        14.70878        -3.25569
O         35.74437        35.87782        -1.58532
H         35.24923        36.59772        -2.04854
H          4.99728        31.12549        -0.63946
H          5.00123        33.58641        -0.75392
H          7.65447        27.00262        -0.74332
H          6.20616        28.99341        -0.37273
H          6.15551        35.76218        -0.38090
H          7.31938        37.94146        -0.07885
H         10.17352        22.86801        -1.07339
H          8.90970        24.95382        -0.82916
H          8.65351        40.18126         0.06071
H          9.91065        42.26528         0.31843
H         12.66256        18.58311        -1.54513
H         11.39245        20.72705        -1.28801
H         11.05850        44.38677         0.21670
H         12.75194        46.40046         1.41199
H         15.32325        14.16893        -0.43878
H         13.83302        16.43531        -1.59443
H         13.70852        48.68146        -0.39366
H         15.00608        50.70911        -0.79319
H         17.58182        10.04020        -2.72064
H         16.23717        12.21515        -2.16143
H         16.32779        52.77195        -1.32541
H         17.63651        54.56914        -2.30544
H         20.74400         5.83563        -2.65989
H         18.90705         8.05131        -3.32845
H         18.99435        56.16070        -3.67275
H         20.37660        57.72475        -4.97369
H         23.87756         3.42081        -5.68168
H         21.63355         4.36156        -5.09318
H         23.92650        60.26356        -6.86550
H         21.72370        59.28824        -6.28752
H         25.95224         4.50204        -4.83628
H         27.04622         6.29075        -3.58280
H         27.13439        57.86014        -4.25167
H         26.01075        59.42166        -5.81409
H         28.17066         8.15911        -2.48641
H         29.32095        10.02534        -1.43434
H         29.37490        54.60748        -1.37863
H         28.23190        56.33258        -2.68581
H         30.50112        11.93646        -0.55363
H         31.72481        14.10820        -0.27399
H         31.68391        50.84993         0.63129
H         30.50586        52.77941        -0.25219
H         32.79613        16.38073        -0.47873
H         33.81379        18.63581        -0.62926
H         33.99002        46.54207         1.08910
H         32.81712        48.76285         1.23195
H         35.04206        20.78146        -0.37948
H         36.09450        22.97120        -0.65392
H         36.40458        42.27724         0.43511
H         35.17226        44.39318         0.80446
H         37.47861        24.89897        -0.35052
H         38.93157        27.12120         0.64861
H         38.86381        37.98887        -0.31512
H         37.63944        40.17888        -0.05203
H         40.12760        29.29027         0.87724
H         41.26679        31.22974         0.47743
H         41.54516        33.49366        -0.16719
H         39.86226        35.74615        -0.93448
