         268
 CSIRO Nanostructure Databank - Neutral Graphene Oxide Data Set
C        -10.86393         0.60714         1.20759
C        -10.07040         1.55553         0.31055
C         -8.90647         0.77511        -0.36400
C         -7.61189         1.54018        -0.41337
C         -6.33368         0.77967        -0.47891
C         -5.04100         1.45076        -0.80776
C         -3.80932         0.62488        -0.70015
C         -2.54050         1.34341        -0.37753
C         -1.32248         0.84169        -1.13644
C          0.00188         1.50320        -0.74239
C          1.28113         0.75366        -0.56518
C          2.46685         1.45215         0.06362
C          3.74363         0.70204         0.28138
C          5.05229         1.43581         0.46943
C          6.33444         0.66905         0.30355
C          7.58308         1.38663        -0.06230
C          8.75838         0.72601        -0.34339
C         10.01332         1.45592        -0.43767
C         11.23039         0.67570        -0.24647
C         -9.38467         2.63431         1.19743
C         -9.06375         3.88048         0.86644
C         -7.58639         2.92161        -1.00443
C         -6.34329         3.70959        -0.66259
C         -5.03870         2.93111        -0.57789
C         -3.86172         3.54842         0.12622
C         -2.56926         2.76662         0.10314
C         -1.27905         3.53821         0.31975
C         -0.00625         2.86894        -0.10547
C          1.25159         3.65483        -0.31223
C          2.54208         2.93299        -0.08122
C          3.71393         3.59888         0.08460
C          5.05698         2.97624         0.41787
C          6.18646         3.54337        -0.45761
C          7.49725         2.82110        -0.43530
C          8.76271         3.59375        -0.52304
C          9.99420         2.84301        -0.48632
C         -8.82514         5.18324         0.80237
C         -7.76565         5.91162        -0.05641
C         -6.42374         5.14051        -0.21089
C         -5.23501         5.78377         0.52968
C         -3.90722         4.99740         0.51833
C         -2.63053         5.84888         0.71875
C         -1.30876         5.03625         0.63069
C         -0.04358         5.81545         0.39992
C          1.18833         5.12344        -0.11342
C          2.46279         5.83794         0.20153
C          3.73909         5.07780         0.24136
C          5.04885         5.79370         0.04194
C          6.16559         5.07048        -0.73212
C          7.50968         5.76717        -0.51819
C          8.72577         4.97785        -0.50715
C         -7.50405         7.34048         0.41633
C         -6.31547         7.99366         0.25646
C         -5.13536         7.15152        -0.11937
C         -3.85604         7.67949        -0.63944
C         -2.50031         7.03303        -0.35732
C         -1.35929         8.02946         0.05512
C         -0.03799         7.32932         0.30553
C          1.21490         8.03100         0.00255
C          2.44592         7.27290        -0.21409
C          3.74167         7.98144        -0.45581
C          5.03119         7.26091        -0.16887
C          6.25357         7.94762        -0.77298
C          7.51355         7.13688        -0.51115
C         -6.13332         9.35459         0.76803
C         -5.00836        10.12678         0.82508
C         -3.73923         9.84035         0.16494
C         -2.46657        10.19844         0.46625
C         -1.31845         9.54476        -0.32160
C          0.02134        10.16790         0.02104
C          1.25036         9.46712        -0.03544
C          2.49576        10.15233        -0.11870
C          3.78317         9.50690        -0.58191
C          5.09141        10.02461         0.00159
C          6.24153         9.35065        -0.18631
C        -10.88331        -0.73323         1.11025
C        -10.23164        -1.44441        -0.07232
C         -8.89363        -0.72298        -0.34100
C         -7.60127        -1.45209        -0.07141
C         -6.31940        -0.71984        -0.34172
C         -5.18593        -1.41181        -1.08379
C         -3.83970        -0.71768        -0.91859
C         -2.59160        -1.48161        -1.23788
C         -1.29005        -0.71740        -1.24791
C         -0.05360        -1.46897        -0.82005
C          1.19569        -0.73664        -0.42125
C          2.51382        -1.44528        -0.44559
C          3.78949        -0.71809        -0.20688
C          5.01306        -1.55793         0.05400
C          6.32449        -0.83224         0.16337
C          7.55570        -1.51837        -0.31243
C          8.79344        -0.73268        -0.56035
C         10.08405        -1.53257        -0.36111
C         11.26543        -0.67849        -0.09617
C        -10.10617        -2.96154        -0.05640
C         -8.93134        -3.67267        -0.20418
C         -7.64060        -2.97418         0.14878
C         -6.41738        -3.67683        -0.41377
C         -5.18222        -2.92894        -0.82307
C         -3.84089        -3.52190        -0.36573
C         -2.68334        -3.03149        -1.25506
C         -1.32585        -3.72928        -0.97772
C         -0.02061        -2.97077        -1.00883
C          1.25138        -3.66325        -0.55899
C          2.50979        -2.93695        -0.25764
C          3.44726        -3.49045         0.82211
C          4.86760        -2.94280         0.60309
C          5.86005        -3.59864         1.54584
C          7.71235        -2.93178        -0.86953
C          8.76978        -3.67291        -0.09090
C          9.95009        -2.94193         0.08319
C         -8.85585        -5.09565        -0.35680
C         -7.65016        -5.85637        -0.27993
C         -6.32766        -5.15874        -0.03580
C         -5.10197        -5.81214        -0.76222
C         -3.88650        -5.06126        -0.22710
C         -2.60861        -5.80429        -0.06732
C         -1.31240        -5.00657        -0.10604
C         -0.09218        -5.88283        -0.33577
C          1.18556        -5.12671        -0.25410
C          2.22977        -5.83007         0.60131
C          3.50569        -5.03241         0.93977
C          4.79340        -5.78490         1.20382
C          6.18172        -5.10929         1.39919
C          7.29019        -5.71587         0.51416
C          8.54542        -5.03708         0.24539
C         -7.62418        -7.24506        -0.29478
C         -6.35993        -8.02737        -0.26306
C         -5.05025        -7.32621        -0.50382
C         -3.77331        -7.98249        -0.09402
C         -2.58753        -7.29545        -0.08190
C         -1.35618        -7.93729         0.53574
C         -0.06767        -7.30809         0.09410
C          1.11142        -7.99062         0.08699
C          2.41846        -7.21115        -0.13135
C          3.60272        -7.99065         0.44603
C          4.79324        -7.29422         1.02258
C          6.16281        -7.97586         1.03469
C          7.21591        -7.09002         0.36865
C         -6.28578        -9.36932         0.35749
C         -5.10119       -10.01459         0.51071
C         -3.80478        -9.39788         0.26865
C         -2.62166       -10.09227         0.47116
C         -1.33300        -9.44417         0.42448
C         -0.13101       -10.11888         0.40078
C          1.15674        -9.44217         0.27332
C          2.35902       -10.11031         0.21590
C          3.65762        -9.39447        -0.15962
C          4.96723       -10.06725         0.19240
C          6.08306        -9.40416         0.52984
O         -7.13838        -5.73931         2.15212
H         -7.62598        -4.87662         2.27317
O          5.79224         0.99360         1.64209
O         -0.85365         7.90852         1.39850
O         -2.54927         1.62307         1.03978
O         -2.06282         6.40926        -1.58126
H         -2.80892         6.41040        -2.22322
O         -6.13297         4.83127        -1.58488
O         -9.01720         0.01928        -1.60894
O        -11.13543        -1.23251        -1.18347
H        -10.73449        -0.53908        -1.76262
O         -1.46440        -7.59589         1.96650
H         -2.30877        -7.97123         2.29723
O         -3.07172        -3.39578        -2.58571
H         -2.31391        -3.18435        -3.17835
O          6.56726         2.80887        -1.63058
O          3.77733        -7.94108         1.87280
O          5.33910         6.70582         1.14590
O          2.38027        -3.58100        -1.53072
O          9.52397        -1.22280        -1.70162
O         -5.10294        -5.65186        -2.17633
H         -5.55134        -6.43980        -2.56375
O          6.04843        -3.09665         2.64043
H          6.55224        -4.66675         3.28645
O          0.94857         1.34433        -1.85043
O          3.04688         5.50674         1.48348
O         -0.42002         5.34981         1.73610
O         -1.59359         1.35818        -2.45503
H         -0.83924         1.12328        -3.03930
O          3.92925        -5.36565         2.30479
O         -1.11641        -4.47211         1.23427
H         -1.11887        -5.23222         1.86128
O         -0.42615         2.83431         1.28091
O          2.92822        -2.97177         2.04914
H          3.27106        -3.52561         2.78737
O         -8.36526         6.07297        -1.34949
H         -8.26595         5.22460        -1.84838
O          5.11674        -2.74394        -0.79632
O          3.02864         7.39719        -1.58173
O         -6.07158        -3.51762        -1.81105
O         -4.09466         3.94179         1.51759
O         -6.70556        -0.99260         1.02167
O         -8.45293         3.32863        -1.76832
O         -1.45747         9.73886        -1.73461
H         -2.41042         9.64493        -1.96891
O         -4.85038         2.37529        -1.92633
O          7.24130        -1.46644         1.11495
O          7.24052        -3.36080        -1.89255
O         -6.80563         1.42387         0.78000
O         -3.86599         9.05022        -1.00122
O         -5.54659        -1.20290        -2.47125
H         -5.04091        -1.84442        -3.01763
O          3.69483        -9.31997        -1.59788
H          3.22041        -8.48409        -1.89098
O          1.16604         4.56654        -1.45958
O          3.30702        -0.93582        -1.56726
O         -1.90706        -1.10057        -2.49406
O         -4.72260         6.98079        -1.53892
O          5.85246         5.30165        -2.08749
O        -10.92112         2.13980        -0.66269
H        -10.37131         2.71537        -1.24211
O          3.85730         9.82106        -2.00424
H          4.55172         9.22222        -2.38513
O         -5.69798        -8.04135        -1.61105
O         -0.53741        -3.62805        -2.19546
O          6.62137        -5.48314         2.72450
O         -3.64942        -2.93778         0.93336
H         -3.26676        -3.64176         1.51779
O         -3.46160        -5.43358         1.10508
O          0.25718        -1.17524         0.59601
O          0.75682        -5.73945        -1.51122
O         -7.60449        -3.16882         1.59596
O          2.81009         0.92999         1.38662
O          2.68456        -6.99071        -1.47101
O          1.57986        -6.07473         1.85368
H          2.26755        -6.41639         2.47573
O         -2.78223         6.39949         2.01984
H         -1.89092         6.40407         2.44798
O          5.39385         3.46617         1.73211
H          4.77408         3.07837         2.38564
O         -5.61093         5.97618         1.90118
H         -5.17513         5.27664         2.43829
O          6.04886         7.99668        -2.20598
H          5.95938         7.03033        -2.47940
O         -5.97441        -5.30679         1.40383
H         -6.90299        -2.57498         1.95635
O          6.61972        -8.13631         2.39971
H          6.61395        -7.24719         2.83386
H         12.21543        -1.16959         0.16328
H         12.16612         1.24210        -0.12215
H         10.94470         3.39825        -0.49446
H          9.68125         5.52778        -0.51567
H          8.47004         7.67863        -0.42383
H          7.19278         9.78668         0.15840
H          5.10885        11.03354         0.44227
H          2.46840        11.25402        -0.11250
H          0.05318        11.26888         0.01925
H         -2.23914        10.80668         1.35223
H         -5.06143        11.05933         1.40828
H         -7.02529         9.76234         1.27252
H         -8.37984         7.90203         0.78059
H         -9.61530         5.85178         1.19615
H         -8.96838         2.24455         2.14677
H        -11.44189         1.08751         2.01297
H        -11.49709        -1.31836         1.81236
H        -11.06218        -3.49769        -0.17019
H         -9.79646        -5.64549        -0.52175
H         -8.56944        -7.80742        -0.36017
H         -7.22484        -9.86452         0.64529
H         -5.09759       -11.03816         0.91560
H         -2.66215       -11.17605         0.66349
H         -0.13441       -11.22082         0.39659
H          2.37167       -11.20875         0.30107
H          5.04057       -11.13872        -0.05346
H          7.01757        -9.97572         0.64815
H          8.06140        -7.60235        -0.11893
H          9.43977        -5.68320         0.29737
H         10.78311        -3.37731         0.65775
