         334
 CSIRO Nanostructure Databank - Neutral Graphene Oxide Data Set
C         30.58471        57.24873         0.75598
C         30.52251        58.65625         0.58332
C         29.30047        59.36339         0.74407
C         30.42809        61.44317         0.22849
C         29.25713        60.73331         0.55673
C         32.91750        52.95251         0.41304
C         32.93505        54.35701         0.47017
C         31.77707        55.11237         0.67221
C         32.98491        57.25305         0.21214
C         31.77775        56.53806         0.58425
C         32.93578        58.65404         0.02322
C         31.70585        59.37498         0.23006
C         32.87993        61.59870        -0.23145
C         31.64605        60.78254         0.07263
C         35.29634        48.61375        -0.02722
C         35.28454        50.02228        -0.02708
C         34.09401        50.76703         0.20542
C         35.30829        52.84945        -0.20012
C         34.08743        52.16960         0.14343
C         35.16891        54.30835        -0.57327
C         34.26705        55.07797         0.37137
C         35.31380        57.19480        -0.56506
C         34.18934        56.53289        -0.06088
C         35.32070        58.62548        -0.59355
C         34.13082        59.35595        -0.32870
C         35.33684        61.45253        -0.60145
C         34.14491        60.78839        -0.40384
C         37.71560        44.33333        -0.24011
C         37.71189        45.75038        -0.22721
C         36.50754        46.48251        -0.18386
C         37.75031        48.61124        -0.34569
C         36.50371        47.89655        -0.18385
C         37.74794        50.02775        -0.43192
C         36.52247        50.72241        -0.25410
C         37.78045        52.90963        -0.48897
C         36.49266        52.14334        -0.33513
C         37.46085        54.16205        -1.26289
C         36.47137        54.99529        -0.87676
C         37.84637        57.18337        -0.89014
C         36.50014        56.47894        -1.21690
C         37.80492        58.59819        -0.67692
C         36.56721        59.32416        -0.70976
C         37.80712        61.45071        -0.58475
C         36.57977        60.74703        -0.66000
C         40.23915        40.01502        -0.36396
C         40.18639        41.45384        -0.26862
C         38.96112        42.18345        -0.23817
C         40.15236        44.34523        -0.06602
C         38.92487        43.60478        -0.19839
C         40.18915        45.74343        -0.11279
C         38.96251        46.47253        -0.24882
C         40.23364        48.59229        -0.48394
C         38.97483        47.87887        -0.37317
C         40.22776        49.98049        -0.67880
C         38.99910        50.75014        -0.68974
C         40.35040        52.87859        -1.11808
C         39.00719        52.13110        -0.89853
C         40.34376        54.38032        -0.81973
C         39.35386        55.19594        -1.27497
C         40.25814        57.22650        -0.27419
C         39.11343        56.56116        -0.84123
C         40.18310        58.61847        -0.05989
C         39.00453        59.32199        -0.39610
C         40.24586        61.47302        -0.19375
C         39.01385        60.76912        -0.38206
C         42.73962        35.78218        -0.02961
C         42.72036        37.18357        -0.06456
C         41.49043        37.90178        -0.18294
C         42.68893        40.07372         0.19016
C         41.43233        39.30425        -0.17535
C         42.68828        41.45587        -0.48420
C         41.39850        42.15776        -0.16061
C         42.68421        44.30409         0.31676
C         41.38231        43.57641         0.16525
C         42.69670        45.76924         0.13985
C         41.44326        46.48056        -0.06981
C         42.82722        48.50129        -0.53617
C         41.45965        47.85046        -0.32204
C         42.79885        50.02071        -0.46472
C         41.50624        50.73890        -0.65523
C         42.71496        52.89153        -0.03317
C         41.38195        52.18272        -0.19731
C         42.71026        54.26115         0.06913
C         41.64229        55.09555        -0.56688
C         42.61797        57.15279         0.45406
C         41.48355        56.50237        -0.02486
C         42.61452        58.59970         0.74083
C         41.33410        59.36790         0.46652
C         42.67325        61.46279         0.31762
C         41.42019        60.81774         0.18336
C         45.16600        32.93709        -0.00846
C         43.96822        33.63032         0.02647
C         45.20401        35.74655        -0.10193
C         43.95911        35.05071        -0.02246
C         45.20918        37.18983        -0.08306
C         43.97785        37.90024        -0.03849
C         45.18670        40.01963        -0.11095
C         43.98261        39.32443        -0.05521
C         45.23055        41.49288        -0.43828
C         43.94621        42.22600        -0.15863
C         45.18568        44.31360         0.29012
C         43.95713        43.56770         0.11579
C         45.15470        45.71582         0.42435
C         43.90071        46.42578         0.28841
C         45.17466        48.61535         0.42850
C         43.83554        47.92169         0.45777
C         45.17424        50.00513         0.40634
C         43.95792        50.74688         0.12555
C         45.23346        52.87949         0.37363
C         43.92117        52.12255         0.24643
C         45.07306        54.24578         0.99293
C         43.83431        54.98940         0.67523
C         45.06988        57.16381         0.73185
C         43.87050        56.46702         0.62462
C         45.08145        58.59519         0.64583
C         43.89955        59.31987         0.64966
C         45.13082        61.44675         0.51739
C         43.88751        60.76458         0.51440
C         46.38812        33.62612        -0.12899
C         47.72934        35.73087        -0.43326
C         46.41692        35.01942        -0.18339
C         47.71359        37.19553        -0.04709
C         46.43795        37.89617        -0.02132
C         47.64631        40.03711         0.19069
C         46.43246        39.32193         0.00612
C         47.65822        41.46189         0.22635
C         46.45125        42.19374         0.07933
C         47.65974        44.27031         0.51378
C         46.43649        43.58344         0.30547
C         47.62851        45.70017         0.98719
C         46.37264        46.45747         0.61515
C         47.63382        48.58849         0.78525
C         46.38261        47.85853         0.63863
C         47.60451        49.96977         0.90549
C         46.37955        50.72590         0.78175
C         47.54986        52.76333         1.69574
C         46.37577        52.09540         0.96386
C         47.54218        54.30112         1.65065
C         46.31318        55.04530         1.27417
C         47.59646        57.22823         1.13995
C         46.40179        56.42695         0.64160
C         47.58210        58.58621         1.04812
C         46.40568        59.27021         0.38376
C         47.58248        61.44341         0.59433
C         46.36533        60.76749         0.57021
C         48.87683        37.86525         0.18144
C         50.14296        40.06224         0.46091
C         48.86636        39.29327         0.65809
C         50.15279        41.43676         0.41614
C         48.89052        42.17038         0.36160
C         50.14991        44.33000         0.14667
C         48.87595        43.57632         0.41810
C         50.13136        45.76441         0.60911
C         48.91192        46.45101         0.72330
C         50.13964        48.55122         0.80778
C         48.90144        47.86268         0.77466
C         50.15502        50.01910         0.70388
C         48.84289        50.76446         0.80577
C         50.07533        52.84379         1.21785
C         48.86617        52.17294         1.21305
C         50.14673        54.30330         1.51412
C         48.83761        55.05782         1.66698
C         50.05788        57.17128         1.35595
C         48.83978        56.50671         1.41886
C         50.07872        58.64882         1.50810
C         48.74756        59.41772         1.55697
C         50.01158        61.42605         0.67216
C         48.82562        60.77203         0.85303
C         51.38534        42.19385         0.49873
C         52.62037        44.32990         0.58424
C         51.41073        43.57534         0.49200
C         52.62996        45.72881         0.62746
C         51.36068        46.45706         0.70695
C         52.64729        48.57114         1.22230
C         51.35877        47.85734         0.86820
C         52.63362        50.05803         0.97683
C         51.39130        50.76317         0.96865
C         52.59643        52.94194         1.21720
C         51.32509        52.14996         1.05188
C         52.46340        54.28934         0.50446
C         51.31423        55.07693         1.08363
C         52.50375        57.20972         0.72389
C         51.30678        56.46036         1.14041
C         52.49924        58.60377         0.69417
C         51.37738        59.38520         1.26511
C         52.46151        61.50465         0.32089
C         51.35100        60.91634         1.14642
C         53.84120        46.47966         0.55582
C         55.04671        48.62768         0.45598
C         53.87628        47.87547         0.67854
C         55.06914        50.04238         0.52790
C         53.83452        50.76029         0.79864
C         54.99256        52.91199         0.49942
C         53.82791        52.18766         0.76841
C         54.96123        54.35229         0.45255
C         53.75979        55.05461         0.51169
C         54.90014        57.15237        -0.02413
C         53.70831        56.47568         0.39625
C         54.77292        58.54514        -0.49942
C         53.55611        59.31234        -0.04940
C         54.79686        61.45071        -0.40246
C         53.60454        60.80124        -0.04349
C         56.23502        50.79127         0.25667
C         57.39853        52.94012        -0.09416
C         56.23259        52.20133         0.23583
C         57.43083        54.34320        -0.09389
C         56.26210        55.11140         0.48735
C         57.33027        57.21170        -0.43982
C         56.12863        56.50236        -0.07524
C         57.29669        58.56647        -0.68684
C         56.01768        59.30376        -0.95693
C         57.27074        61.43508        -0.95039
C         56.10396        60.71823        -0.31892
C         58.56567        55.05671        -0.50899
C         59.70276        57.14395        -1.13588
C         58.58365        56.46966        -0.61850
C         59.70650        58.54636        -1.33625
C         58.58726        59.34203        -0.70062
C         59.55394        61.36384        -1.87829
C         58.42582        60.75738        -1.21756
C         60.74480        59.22515        -1.96375
C         60.66579        60.62512        -2.21115
O         42.41738        50.57575        -1.78915
O         44.09041        54.39585         2.04176
O         49.64239        54.67926         2.83401
O         53.66405        58.75094        -1.43639
O         41.97646        43.87182         1.52976
O         50.98047        58.98354         2.63069
O         49.48490        50.51656        -0.50781
O         41.72937        59.01290         1.83591
O         46.67538        54.91520         2.67736
O         38.42079        54.64373        -2.16245
O         52.77290        53.23510         2.63172
H         52.73931        52.39008         3.12700
O         48.81542        35.04502         0.19704
H         48.68861        35.09403         1.16636
O         46.63639        56.20346        -0.77667
H         46.68399        57.09791        -1.19794
O         42.63371        40.31835         1.62216
H         42.54516        39.45363         2.07433
O         47.41535        52.37921         3.09028
H         46.96217        53.12670         3.54622
O         42.19592        55.29832        -1.93501
H         42.15628        54.42058        -2.38351
O         43.27715        48.18107         1.78258
H         43.80555        47.68274         2.44072
O         52.13512        53.99765        -0.88512
H         52.15501        54.83911        -1.38743
O         58.99205        59.47310         0.70799
H         59.89152        59.86337         0.71312
O         48.70891        39.20036         2.14417
H         47.83265        38.79016         2.31007
O         56.57596        55.29261         1.91681
H         56.52617        54.40922         2.34019
O         36.27546        56.61260        -2.65658
H         37.00463        56.11964        -3.09551
O         46.65117        59.05732        -1.06889
H         45.97251        59.57219        -1.55678
O         56.35659        60.46906         1.09584
H         56.58549        61.31973         1.52405
O         51.55452        61.47863         2.48320
H         51.32904        60.76786         3.12834
O         43.26566        48.12775        -1.86009
H         42.90771        48.81192        -2.47351
O         50.17283        44.43634        -1.32891
H         51.02268        44.86172        -1.57366
O         40.77172        52.18462         1.12939
H         41.47969        52.13716         1.80661
O         47.56863        45.58506         2.46260
H         47.58906        46.49531         2.82827
O         32.65790        62.40814        -1.40259
H         32.52952        61.80767        -2.16524
O         34.48130        54.29804        -1.87089
H         34.68766        55.14785        -2.32418
O         40.78026        52.70556        -2.48734
H         40.08467        53.09293        -3.06070
O         55.93755        59.47678        -2.39122
H         54.98025        59.41630        -2.62449
O         42.67087        41.25029        -1.92819
H         43.61285        41.16437        -2.22671
O         45.64669        53.17071        -1.00772
H         45.72445        52.31869        -1.48805
O         38.12778        53.40688         0.86155
H         38.95045        52.94633         1.16025
O         34.87333        55.06690         1.68818
H         34.29204        55.56945         2.29565
O         45.38118        41.51306        -1.93157
H         45.66798        42.41790        -2.18347
O         52.75099        48.44457         2.69180
H         52.88402        47.49239         2.88942
O         48.45523        59.70074         2.94961
H         49.30920        59.66966         3.43777
H         29.66548        56.70185         1.01466
H         28.39067        58.80766         1.01298
H         30.38691        62.53304         0.09288
H         28.30914        61.27653         0.67495
H         31.96385        52.42851         0.58664
H         30.81473        54.59966         0.82747
H         33.03615        62.32436         0.61358
H         34.35624        48.06047         0.11515
H         33.16522        50.22608         0.44162
H         35.34787        62.55204        -0.63073
H         36.75731        43.79433        -0.27549
H         35.55036        45.94391        -0.11959
H         37.79510        62.55075        -0.57584
H         39.30214        39.46013        -0.52504
H         38.01120        41.63243        -0.30334
H         40.25540        62.56430        -0.33648
H         41.78803        35.22955        -0.02731
H         40.56381        37.32683        -0.33507
H         42.71905        62.55285         0.17080
H         45.16675        31.83888         0.03579
H         43.01342        33.08913         0.09244
H         45.13254        62.54754         0.51396
H         47.33296        33.06734        -0.18493
H         47.92856        35.67513        -1.54197
H         47.59570        62.53882         0.47742
H         49.83017        37.31478         0.16427
H         51.09387        39.51198         0.53288
H         49.99330        62.44229         0.24746
H         52.32508        41.63604         0.63594
H         53.57848        43.78840         0.62134
H         52.49384        62.60513         0.29330
H         54.77601        45.93988         0.33751
H         55.96594        48.10022         0.15668
H         54.79988        62.55101        -0.46502
H         57.17253        50.25845         0.03640
H         58.30083        52.38840        -0.40154
H         57.15964        62.48746        -1.25860
H         59.46236        54.49499        -0.81574
H         60.58110        56.55798        -1.44920
H         59.49692        62.42831        -2.15021
H         61.62405        58.66779        -2.31963
H         61.50542        61.11372        -2.72594
