         600
 CSIRO Nanostructure Databank - Neutral Graphene Oxide Data Set
C         22.97655        27.38495        -0.71252
C         22.97877        28.76866        -0.69412
C         22.98977        31.70062        -0.81976
C         22.99365        33.08095        -0.78028
C         22.98049        35.99740        -0.54102
C         22.98042        37.37690        -0.45630
C         22.98544        40.29121        -0.15201
C         22.99105        41.66066         0.04462
C         22.97954        44.55779         0.46375
C         22.97174        45.91959         0.65131
C         25.39579        24.54718        -0.60858
C         24.20751        25.23414        -0.67045
C         25.42389        27.36769        -0.58449
C         24.19129        26.65914        -0.65994
C         25.41934        28.79410        -0.53873
C         24.18376        29.50530        -0.60848
C         25.38132        31.67575        -0.39594
C         24.18042        30.96179        -0.61182
C         25.40873        33.09540        -0.42014
C         24.18949        33.81126        -0.58042
C         25.41875        35.96726        -0.48030
C         24.18774        35.25972        -0.53728
C         25.41730        37.39607        -0.41919
C         24.18854        38.10908        -0.37825
C         25.42081        40.24863        -0.09803
C         24.19153        39.55211        -0.22049
C         25.43134        41.66479         0.14547
C         24.19612        42.37991         0.20919
C         25.42143        44.49847         0.60629
C         24.19815        43.81481         0.42872
C         25.42120        45.91570         0.81965
C         24.18971        46.63210         0.82819
C         25.40015        48.71737         1.14572
C         24.20820        48.03857         1.02008
C         27.93822        23.09263        -0.40812
C         27.89637        24.52025        -0.52737
C         26.64745        25.22924        -0.54719
C         27.89781        27.36951        -0.48710
C         26.66041        26.65464        -0.53551
C         27.89316        28.79998        -0.38797
C         26.65837        29.48286        -0.37163
C         27.93876        31.68125        -0.08167
C         26.61325        30.92386        -0.10634
C         27.90215        33.12994        -0.33377
C         26.66645        33.81947        -0.38296
C         27.89450        35.95265        -0.55821
C         26.66081        35.24374        -0.47842
C         27.88993        37.40214        -0.48853
C         26.66188        38.11221        -0.37297
C         27.89183        40.23318        -0.11221
C         26.66155        39.53201        -0.21138
C         27.91651        41.66270         0.17988
C         26.66425        42.35381         0.32799
C         27.88246        44.43886         0.79514
C         26.67783        43.77300         0.56844
C         27.88584        45.86038         1.14332
C         26.63712        46.62786         1.02442
C         27.91670        48.76177         1.10428
C         26.64856        48.03014         1.13357
C         27.93133        50.17483         1.06909
C         30.37967        23.06498        -0.32998
C         29.13050        22.41132        -0.24487
C         30.38287        24.47462        -0.86332
C         29.11380        25.23922        -0.58065
C         30.37982        27.37783        -0.57447
C         29.13056        26.65436        -0.54700
C         30.38840        28.78998        -0.52718
C         29.15081        29.52206        -0.39262
C         30.39478        31.66207        -0.48812
C         29.17399        30.92803        -0.34651
C         30.38617        33.08792        -0.51886
C         29.12979        33.81671        -0.49416
C         30.37764        35.92947        -0.85730
C         29.10822        35.22677        -0.62891
C         30.38603        37.44923        -0.68727
C         29.10622        38.12532        -0.40706
C         30.37192        40.22592         0.09044
C         29.10103        39.50984        -0.17589
C         30.37125        41.69919        -0.23983
C         29.12392        42.34595         0.29361
C         30.41567        44.50741         0.54402
C         29.18833        43.69657         0.94733
C         30.42804        45.88748         0.66540
C         29.20909        46.61494         1.09746
C         30.36091        48.79096         0.74367
C         29.15107        48.08129         0.96463
C         30.34801        50.21549         0.75154
C         29.11505        50.87725         0.91631
C         32.83961        20.34308         0.37058
C         31.65028        21.00116         0.18487
C         32.85855        23.10479        -0.20466
C         31.61315        22.39361        -0.12003
C         32.85580        24.53142        -0.41314
C         31.64120        25.23768        -0.56390
C         32.86603        27.35927        -0.65008
C         31.62604        26.64900        -0.59243
C         32.86467        28.80404        -0.68286
C         31.63496        29.50906        -0.58439
C         32.85842        31.66262        -0.58465
C         31.63126        30.94522        -0.55989
C         32.86353        33.08952        -0.58836
C         31.62293        33.79830        -0.58327
C         32.85881        35.94319        -0.65706
C         31.64895        35.22157        -0.67127
C         32.86611        37.38855        -0.54895
C         31.66388        38.07971        -0.37486
C         32.92901        40.23862        -0.15980
C         31.67956        39.48774         0.02534
C         32.89387        41.68904        -0.00050
C         31.66285        42.39715         0.09850
C         32.87950        44.52324         0.22485
C         31.64937        43.79575         0.27820
C         32.87634        45.95247         0.21249
C         31.62626        46.66334         0.41354
C         32.78392        48.84380         0.12263
C         31.58577        48.06346         0.48775
C         32.81405        50.29659         0.44235
C         31.59667        50.97024         0.68346
C         32.84360        53.04518         0.99913
C         31.64174        52.35772         0.94982
C         35.34993        18.93637         0.78699
C         35.32271        20.33037         0.50004
C         34.08743        21.02280         0.28227
C         35.33934        23.13862        -0.07271
C         34.08762        22.42315        -0.00404
C         35.34514        24.52818        -0.34216
C         34.09561        25.23993        -0.47615
C         35.33776        27.32700        -1.11145
C         34.07779        26.63606        -0.68192
C         35.34055        28.80859        -0.84520
C         34.10703        29.51399        -0.74282
C         35.30803        31.67352        -0.69563
C         34.10263        30.95301        -0.65805
C         35.33500        33.10258        -0.62452
C         34.09353        33.81571        -0.61757
C         35.34097        35.96081        -0.57982
C         34.10624        35.24034        -0.61728
C         35.35028        37.39336        -0.54423
C         34.11550        38.10679        -0.50670
C         35.36559        40.32385        -0.69123
C         34.09876        39.54127        -0.42639
C         35.39682        41.60147         0.16270
C         34.11054        42.39286         0.07320
C         35.34971        44.53225         0.06543
C         34.11390        43.80888         0.13114
C         35.34250        45.93974         0.03393
C         34.10241        46.64208         0.06184
C         35.38905        48.88909        -0.17888
C         34.07786        48.10210        -0.14800
C         35.29437        50.20507         0.58680
C         34.03843        50.98766         0.55802
C         35.35336        53.10452         0.89412
C         34.07776        52.37763         0.83806
C         35.39617        54.52378         0.95227
C         37.77948        18.95185         1.00153
C         36.52829        18.27268         1.02744
C         37.78450        20.34522         0.70462
C         36.55951        21.04137         0.44904
C         37.81530        23.14673         0.10980
C         36.57160        22.44147         0.16045
C         37.82965        24.54998        -0.19992
C         36.59104        25.24534        -0.41537
C         37.82006        27.35624        -0.71876
C         36.60420        26.63351        -0.67726
C         37.81966        28.78325        -0.87747
C         36.56887        29.48178        -0.91588
C         37.84830        31.69154        -0.93640
C         36.55275        30.94964        -0.98905
C         37.82918        33.06408        -0.29725
C         36.55528        33.82171        -0.55508
C         37.82637        35.95260        -0.46539
C         36.57822        35.23793        -0.53837
C         37.83431        37.37061        -0.41064
C         36.60261        38.09654        -0.46716
C         37.84364        40.21454        -0.39287
C         36.63874        39.52486        -0.48777
C         37.86503        41.70722        -0.63788
C         36.61214        42.42674        -0.16671
C         37.85313        44.55385        -0.44509
C         36.58706        43.78820        -0.11970
C         37.82484        45.96645         0.08736
C         36.61048        46.67368         0.08568
C         37.81586        48.78170         0.41895
C         36.61066        48.09010         0.22618
C         37.84330        50.23532         0.49100
C         36.58319        50.94405         0.77860
C         37.81358        53.11994         0.69096
C         36.57923        52.41726         0.80979
C         37.83061        54.54305         0.72567
C         36.58991        55.21517         0.88576
C         40.22980        16.17322         1.64426
C         39.04508        16.84753         1.47452
C         40.23976        18.98597         1.26191
C         39.01393        18.25695         1.24983
C         40.22162        20.38398         1.01227
C         39.02345        21.06084         0.68649
C         40.28107        23.16796         0.27195
C         39.03593        22.46440         0.37180
C         40.29687        24.54324        -0.11020
C         39.05908        25.24394        -0.31862
C         40.28305        27.35430        -0.75896
C         39.06843        26.65781        -0.59050
C         40.31406        28.78007        -0.85619
C         39.06627        29.49288        -0.85322
C         40.30891        31.61307        -0.79145
C         39.10029        30.91302        -0.83040
C         40.28622        33.08709        -0.90261
C         39.06876        33.84433        -0.62275
C         40.33825        35.95537        -0.43128
C         39.07932        35.23307        -0.53714
C         40.32035        37.38045        -0.23857
C         39.08041        38.08070        -0.28657
C         40.29551        40.20392         0.03766
C         39.08305        39.50731        -0.22363
C         40.26975        41.63968         0.20006
C         39.09833        42.38603        -0.10118
C         40.17521        44.45888         0.56635
C         39.06560        43.78105         0.01788
C         40.27960        45.91424         0.53421
C         39.04909        46.63651         0.35793
C         40.28621        48.74579         0.48597
C         39.04545        48.05491         0.48670
C         40.29701        50.21763         0.53860
C         39.01795        50.94526         0.45928
C         40.23655        53.09449         0.24869
C         39.04499        52.39879         0.48404
C         40.27686        54.51964         0.31104
C         39.08375        55.25013         0.57561
C         40.34579        57.33650         0.47102
C         39.15464        56.67234         0.64594
C         42.70434        16.15855         1.68841
C         41.47559        16.86331         1.60214
C         42.74020        18.94598         1.38297
C         41.48874        18.27892         1.44299
C         42.77673        20.41517         1.31429
C         41.46376        21.16216         1.12573
C         42.75262        23.15678         0.35402
C         41.51153        22.51579         0.55379
C         42.76514        24.51904        -0.09458
C         41.53984        25.19826        -0.28445
C         42.84628        27.30342        -0.96136
C         41.53664        26.57784        -0.80908
C         42.86425        28.81785        -1.18225
C         41.54498        29.50614        -0.87568
C         42.79552        31.65558        -0.59295
C         41.55172        30.91398        -0.80835
C         42.79751        33.02500        -0.42672
C         41.61554        33.83749        -0.74052
C         42.78368        35.94367        -0.08465
C         41.55638        35.26111        -0.37518
C         42.77496        37.37331         0.05499
C         41.54519        38.08560        -0.02033
C         42.73959        40.19611         0.54325
C         41.53578        39.50852         0.20304
C         42.64980        41.57221         1.21806
C         41.37938        42.29871         0.78406
C         43.01753        44.70538         1.10977
C         41.17822        43.63710         1.11984
C         42.82955        45.98099         0.53292
C         41.51062        46.62179         0.50582
C         42.67637        48.75370        -0.17861
C         41.48193        48.04042         0.33221
C         42.77262        50.21135        -0.10897
C         41.56004        50.96215         0.26829
C         42.76015        53.07789        -0.20685
C         41.43840        52.35465        -0.29409
C         42.75822        54.49821        -0.11258
C         41.52579        55.21056         0.12097
C         42.79110        57.31589         0.06005
C         41.55257        56.62372         0.21156
C         43.90986        16.81984         1.58615
C         45.22094        18.94995         1.31402
C         43.95752        18.23253         1.42832
C         45.23476        20.33887         0.96960
C         44.01819        21.07913         0.89617
C         45.24303        23.09677         0.24465
C         44.00164        22.43723         0.52125
C         45.24826        24.49144        -0.06795
C         44.02528        25.20719        -0.24756
C         45.26838        27.32339        -0.36171
C         44.06649        26.60356        -0.50742
C         45.25295        28.77077        -0.34895
C         44.05376        29.50759        -0.55225
C         45.25930        31.61512        -0.18923
C         44.03621        30.90151        -0.40139
C         45.26620        33.04190        -0.02014
C         43.95277        33.72447         0.24800
C         45.21445        35.91850         0.21726
C         43.98983        35.22323         0.04019
C         45.22735        37.35911         0.29709
C         43.99840        38.07532         0.26078
C         45.23285        40.18268         0.58526
C         43.98249        39.50049         0.48759
C         45.27714        41.64117         0.81939
C         44.00954        42.39433         1.11651
C         45.25970        44.49086         0.31488
C         44.08801        43.86144         0.80901
C         45.23642        45.89397         0.04443
C         44.00085        46.59163         0.04160
C         45.22039        48.75133        -0.46347
C         43.96535        47.98943        -0.41361
C         45.19409        50.15909        -0.54099
C         43.94511        50.88833        -0.39057
C         45.19783        53.04969        -0.48102
C         43.95207        52.35244        -0.35529
C         45.20888        54.47295        -0.44746
C         43.98557        55.20688        -0.23458
C         43.96351        56.63232        -0.15009
C         47.66174        18.96605         1.35740
C         46.45525        18.29747         1.50726
C         47.70760        20.32066         0.96027
C         46.47743        21.01124         0.74492
C         47.71918        23.04448         0.07664
C         46.47523        22.38905         0.35932
C         47.72853        24.46354        -0.17276
C         46.49149        25.17838        -0.17991
C         47.73643        27.28742        -0.09509
C         46.50224        26.60323        -0.22397
C         47.70405        28.72971         0.16150
C         46.45581        29.47381        -0.09839
C         47.75178        31.58521        -0.26003
C         46.47109        30.87588        -0.13111
C         47.74189        33.11786        -0.14690
C         46.44793        33.77875         0.11944
C         47.67283        35.91030         0.63575
C         46.43017        35.18852         0.33697
C         47.70804        37.37156         0.47264
C         46.46688        38.06494         0.39363
C         47.71226        40.20549         0.38231
C         46.46068        39.49663         0.44922
C         47.71560        41.63770         0.27049
C         46.50346        42.36185         0.39016
C         47.70119        44.46788        -0.08707
C         46.49435        43.76058         0.19386
C         47.68544        45.89074        -0.27599
C         46.45660        46.60049        -0.25259
C         47.66949        48.73539        -0.59000
C         46.44619        48.02590        -0.43058
C         47.65304        50.16166        -0.70741
C         46.42583        50.87889        -0.64224
C         47.64570        53.01892        -0.81315
C         46.42313        52.31814        -0.65223
C         47.62326        54.44225        -0.80243
C         46.45393        55.14167        -0.62057
C         50.21884        20.41824         1.03808
C         48.96056        21.01121         0.74333
C         50.19998        22.93095        -0.22001
C         48.93505        22.32650         0.21443
C         50.19871        24.47056        -0.52345
C         48.94602        25.18447        -0.29240
C         50.23629        27.31874        -0.20008
C         48.97117        26.59962        -0.16148
C         50.26711        28.72290        -0.08036
C         49.02649        29.46456         0.19774
C         50.22164        31.61336        -0.11128
C         49.02513        30.90997        -0.05267
C         50.21453        33.06002        -0.01480
C         49.01477        33.75356         0.15808
C         50.23937        35.92432         0.32226
C         49.02249        35.16022         0.57233
C         50.20253        37.34691         0.34236
C         48.94147        38.05885         0.42984
C         50.17301        40.20556         0.17509
C         48.94057        39.49402         0.32784
C         50.17840        41.62386         0.02734
C         48.94157        42.34065         0.05372
C         50.16637        44.46198        -0.30532
C         48.93658        43.75680        -0.11733
C         50.15704        45.88341        -0.48664
C         48.91490        46.59779        -0.47415
C         50.13354        48.72412        -0.79172
C         48.90541        48.01467        -0.61918
C         50.12465        50.14996        -0.92841
C         48.88937        50.87162        -0.86812
C         50.11836        52.95877        -1.17584
C         48.88478        52.28950        -0.95917
C         51.42032        21.07865         0.82145
C         52.69352        23.03999        -0.08628
C         51.47559        22.33388         0.17589
C         52.67036        24.42954        -0.45075
C         51.48146        25.17833        -0.47324
C         52.68286        27.34990        -0.47865
C         51.47289        26.61658        -0.41232
C         52.71028        28.76151        -0.32296
C         51.47630        29.46333        -0.18092
C         52.69428        31.61233        -0.13889
C         51.47839        30.89838        -0.11965
C         52.68798        33.05087        -0.03283
C         51.46664        33.76046         0.07085
C         52.68657        35.89026         0.09694
C         51.46311        35.19661         0.13170
C         52.67524        37.35641        -0.21130
C         51.40485        38.07422         0.16388
C         52.65066        40.19528        -0.01124
C         51.41214        39.48881         0.11221
C         52.65794        41.61482        -0.12679
C         51.40927        42.32825        -0.13965
C         52.63482        44.45457        -0.43630
C         51.40117        43.74674        -0.29236
C         52.62729        45.86567        -0.63560
C         51.37892        46.58655        -0.67047
C         52.58361        48.72957        -1.03241
C         51.36514        48.01007        -0.83312
C         52.59559        50.13143        -1.11295
C         51.34994        50.85564        -1.09404
C         51.30723        52.26669        -1.24573
C         55.16245        23.08839        -0.04066
C         53.96252        22.41401         0.09665
C         55.22060        24.44822        -0.43366
C         53.94718        25.10470        -0.73457
C         55.20799        27.35934        -0.54808
C         53.94166        26.66168        -0.77929
C         55.19218        28.77523        -0.39892
C         53.94858        29.48463        -0.34029
C         55.17115        31.63103        -0.25709
C         53.94587        30.90959        -0.24236
C         55.16574        33.07188        -0.13468
C         53.92369        33.76268        -0.00565
C         55.14890        35.89486         0.26749
C         53.92061        35.18774         0.10675
C         55.04038        37.30189         0.83738
C         53.91178        38.09002         0.20990
C         55.14674        40.19658         0.14956
C         53.90074        39.47580         0.13110
C         55.15414        41.61921        -0.12654
C         53.88834        42.32394        -0.23288
C         55.09561        44.46523        -0.54217
C         53.88041        43.74623        -0.41524
C         55.09461        45.86925        -0.68649
C         53.85631        46.55267        -0.79606
C         55.17045        48.75412        -1.11631
C         53.83962        47.97650        -1.15578
C         55.05262        50.20595        -0.93995
C         53.85535        50.83741        -1.04320
C         57.70178        24.52326        -0.48629
C         56.43608        25.18905        -0.51795
C         57.65901        27.35354        -0.46084
C         56.42226        26.63137        -0.54701
C         57.66064        28.78175        -0.39419
C         56.42252        29.49476        -0.35517
C         57.64692        31.63230        -0.32488
C         56.41605        30.92501        -0.31790
C         57.64309        33.12632        -0.55109
C         56.36755        33.80970        -0.13696
C         57.62505        35.93834         0.25651
C         56.36412        35.20665         0.14012
C         57.61776        37.32362         0.49589
C         56.38132        38.08887         0.94331
C         57.58225        40.16891         0.26256
C         56.35868        39.49484         0.34565
C         57.66858        41.57531        -0.26646
C         56.35434        42.29828        -0.27125
C         57.56811        44.49632        -0.09885
C         56.40357        43.73550        -0.70480
C         57.53128        45.91638        -0.14833
C         56.34629        46.61490        -0.56895
C         57.54801        48.73304        -0.30629
C         56.37294        48.01814        -0.65887
C         58.88358        25.21964        -0.47393
C         60.10880        27.37343        -0.38461
C         58.89301        26.64791        -0.44203
C         60.10821        28.75437        -0.33695
C         58.89617        29.49133        -0.33501
C         60.08528        31.68840        -0.17337
C         58.87908        30.93890        -0.29497
C         60.07460        33.07179        -0.00999
C         58.89224        33.82062        -0.07504
C         60.07659        35.98170         0.22041
C         58.86934        35.24197         0.12684
C         60.06087        37.35276         0.37763
C         58.83741        38.04613         0.51988
C         59.94825        40.27015         0.84617
C         58.81295        39.50150         0.56884
C         59.88128        41.68315         0.86352
C         58.77983        42.37533         0.38705
C         59.84510        44.60067         0.78037
C         58.71980        43.82585         0.35732
C         59.83404        45.97153         0.71201
C         58.68376        46.66233         0.24188
C         58.67122        48.07693         0.14855
O         54.60959        48.27001        -2.37272
O         42.10509        21.07057         2.45109
O         33.21514        48.51417        -1.26807
O         53.93084        25.84938        -1.99254
O         47.76265        32.44810        -1.45412
O         30.37725        36.81435        -2.02356
O         48.34295        29.08368         1.45337
O         42.06817        44.23862         2.01561
O         43.04765        48.24064        -1.52504
O         44.89150        42.01808         2.22744
O         30.99871        39.81623         1.32930
O         41.14577        50.76988         1.64928
O         28.65992        46.14601         2.38930
O         41.04260        33.57221        -2.06136
O         37.19836        31.53803        -2.22241
O         42.23304        26.64221        -2.12874
O         48.35403        35.43666         1.85659
O         50.14464        23.46452        -1.57577
O         35.89423        50.25415         1.91455
O         27.25857        31.29630         1.16408
O         35.64032        49.27236        -1.56010
H         34.78618        49.17326        -2.04461
O         37.87603        41.87914        -2.10322
H         37.00187        41.53112        -2.41981
O         30.28367        41.73752        -1.71037
H         30.25797        42.67762        -1.98773
O         58.08274        41.43956        -1.70149
H         58.95778        40.99360        -1.69911
O         56.64968        43.72277        -2.15712
H         57.28288        42.98218        -2.33018
O         56.60863        38.32853         2.37483
H         57.45831        38.81324         2.45812
O         37.92982        44.67074        -1.89686
H         37.97278        43.74303        -2.24683
O         35.33401        27.21360        -2.59067
H         36.10701        27.71891        -2.92338
O         43.68514        33.55344         1.69860
H         44.42454        33.98173         2.18165
O         29.35015        43.46656         2.39738
H         29.21481        44.34803         2.82575
O         42.47344        41.27584         2.62408
H         43.37724        41.24453         3.02099
O         57.67851        33.27865        -2.03526
H         58.48916        32.82169        -2.34740
O         35.53262        41.14652         1.54162
H         35.46893        41.92815         2.12922
O         43.06685        29.02378        -2.61418
H         42.60583        28.27967        -3.06865
O         41.17497        52.15965        -1.72476
H         41.16290        53.04222        -2.15130
O         52.70230        37.40839        -1.70374
H         51.88596        36.96802        -2.02457
O         54.50668        37.06284         2.17956
H         55.06033        37.58222         2.80974
O         30.39601        24.30944        -2.34356
H         29.59283        23.79627        -2.57780
O         37.87349        32.77947         1.15156
H         37.84662        33.63865         1.62425
O         35.32991        40.75070        -2.09199
H         35.15903        39.95814        -2.64388
H         22.02517        26.83685        -0.76865
H         22.01562        29.29416        -0.73400
H         22.04035        31.18262        -1.00689
H         22.04401        33.60968        -0.93374
H         22.01462        35.47767        -0.58522
H         22.01441        37.89787        -0.43963
H         22.01749        39.78443        -0.25731
H         22.02553        42.18126         0.08320
H         22.01972        44.04220         0.33047
H         22.02126        46.47198         0.66414
H         25.37096        23.44967        -0.62358
H         23.25420        24.68920        -0.72625
H         25.37215        49.80812         1.26459
H         23.25587        48.58743         1.04547
H         27.00214        22.52410        -0.33994
H         26.99892        50.74394         1.17126
H         29.08255        21.33643        -0.02306
H         29.07237        51.97403         0.90828
H         32.81041        19.26950         0.59534
H         30.71636        20.43013         0.26425
H         32.81999        54.12093         1.21740
H         30.71551        52.91368         1.14475
H         34.41541        18.36246         0.82324
H         34.46484        55.09952         1.03664
H         36.48707        17.19871         1.24954
H         36.56075        56.31216         0.92954
H         40.22940        15.08358         1.79156
H         38.10881        16.27475         1.49178
H         40.38119        58.43347         0.53828
H         38.24719        57.25574         0.85151
H         42.68429        15.06634         1.81393
H         42.79683        58.41341         0.12800
H         44.83991        16.23773         1.62694
H         44.89655        57.20282        -0.24745
H         48.59326        18.41072         1.52940
H         46.47916        17.23853         1.79653
H         48.55569        55.00800        -0.92622
H         46.49577        56.23861        -0.61075
H         50.25285        19.42165         1.49781
H         50.14156        54.04958        -1.29580
H         52.35003        20.58614         1.13803
H         52.23141        52.83036        -1.42723
H         56.09318        22.54268         0.16717
H         53.99572        21.35350         0.38047
H         55.95036        50.80144        -0.72435
H         53.83920        51.93105        -0.94402
H         57.73105        23.42527        -0.50393
H         57.56936        49.82733        -0.39161
H         59.84271        24.68188        -0.47373
H         61.06081        26.82328        -0.37795
H         61.07236        29.27822        -0.29814
H         61.05040        31.16946        -0.11588
H         61.02954        33.56638         0.21592
H         61.04421        35.47435         0.11454
H         61.00926        37.90670         0.38390
H         60.88398        39.78527         1.15427
H         60.74748        42.22290         1.26975
H         60.75036        44.09804         1.14471
H         60.71764        46.54998         1.01809
H         59.57035        48.64375         0.42917
