         490
 CSIRO Nanostructure Databank - Neutral Graphene Oxide Data Set
C         37.47928        50.09259        -0.65414
C         36.28068        50.78702        -0.63514
C         37.48421        52.86826        -0.39307
C         36.28329        52.18526        -0.50238
C         40.01817        48.62910        -0.66057
C         39.97878        50.04446        -0.55009
C         38.72111        50.76617        -0.54294
C         39.98553        52.89726        -0.31096
C         38.72389        52.18403        -0.41159
C         40.02564        54.30175        -0.16988
C         42.45591        48.59641        -0.48368
C         41.20789        47.93335        -0.63080
C         42.44971        50.03876        -0.42979
C         41.20780        50.75074        -0.44849
C         42.46070        52.89277        -0.30101
C         41.21873        52.18430        -0.35581
C         42.46388        54.30411        -0.13989
C         41.22701        54.98211        -0.07374
C         44.96479        45.78145        -0.35180
C         43.75513        46.46435        -0.47846
C         44.90879        48.60917         0.08423
C         43.67464        47.85847        -0.36408
C         44.92817        50.00279        -0.49937
C         43.66855        50.76662        -0.44105
C         44.96126        52.89625        -0.40641
C         43.70746        52.17667        -0.40167
C         44.95453        54.33596        -0.24590
C         43.72402        55.02435        -0.05996
C         44.95127        57.10891         0.19770
C         43.75389        56.41353         0.18098
C         47.49416        44.31499        -0.05540
C         47.45164        45.73450        -0.13364
C         46.20654        46.44988        -0.19375
C         47.42422        48.57755        -0.12098
C         46.22005        47.87844        -0.12325
C         47.43337        50.07868         0.06721
C         46.21614        50.74661        -0.51515
C         47.45759        52.88706        -0.49586
C         46.19918        52.22100        -0.45919
C         47.47050        54.38997        -0.65621
C         46.17394        55.06284        -0.25384
C         47.48314        57.19856        -0.16338
C         46.17011        56.45005        -0.05083
C         47.44779        58.62002         0.34385
C         49.94049        44.32417         0.01796
C         48.68985        43.64062         0.01413
C         49.93456        45.76207        -0.03917
C         48.68454        46.45479        -0.12358
C         49.90056        48.60730        -0.24833
C         48.67050        47.88130        -0.16644
C         49.89532        50.04381        -0.29535
C         48.71125        50.77361        -0.35330
C         49.94519        52.99085        -0.89807
C         48.68178        52.19184        -0.54621
C         49.93423        54.32392        -0.11680
C         48.70601        55.00340        -0.02290
C         49.89432        57.16583         0.58419
C         48.58946        56.39078         0.56844
C         49.86569        58.52324         0.69938
C         48.58879        59.23574         0.69227
C         52.41870        41.49706        -0.19967
C         51.22541        42.18972        -0.20938
C         52.42739        44.28799         0.24176
C         51.16271        43.58930         0.01597
C         52.43791        45.84029         0.11210
C         51.14797        46.50961        -0.13939
C         52.34594        48.67128        -0.83959
C         51.13275        47.89923        -0.32845
C         52.43158        50.03849        -0.21448
C         51.15593        50.80853        -0.00649
C         52.46099        52.87797        -0.20857
C         51.28390        52.12148        -0.81190
C         52.41154        54.37201        -0.35206
C         51.13746        54.99430         0.14958
C         52.40835        57.20358         0.42408
C         51.17418        56.37982         0.74521
C         52.38832        58.53741         0.67968
C         51.12245        59.35826         0.59323
C         52.34654        61.32419         1.50357
C         51.18557        60.61801         1.42387
C         54.97511        40.01027        -0.20326
C         54.91771        41.44924        -0.03848
C         53.68464        42.15530        -0.06383
C         54.90021        44.30332         0.02050
C         53.69290        43.57450         0.06162
C         54.87236        45.73189        -0.20342
C         53.70876        46.47386        -0.25576
C         55.01616        48.70321        -0.56319
C         53.71056        47.83270        -0.96162
C         54.83327        50.04038         0.11699
C         53.62282        50.74430         0.00142
C         54.74737        52.91798         0.82921
C         53.56579        52.20317         0.20724
C         54.80455        54.36795         0.39963
C         53.68422        55.05630         0.08457
C         54.92867        57.20717         0.49607
C         53.69518        56.55615        -0.08389
C         54.90942        58.60056         0.80271
C         53.62615        59.24027         1.19609
C         54.81453        61.45862         1.02553
C         53.61230        60.74058         1.13061
C         54.83704        62.89795         1.02707
C         57.35769        39.97444         0.52747
C         56.11421        39.31468        -0.00451
C         57.38308        41.46487         0.23955
C         56.14476        42.17181         0.10736
C         57.39825        44.31447         0.06315
C         56.14088        43.59599         0.05399
C         57.41415        45.69080        -0.15483
C         56.16662        46.43607        -0.53690
C         57.38105        48.54253         0.27458
C         56.06864        47.82365         0.16675
C         57.32685        49.91263         0.75160
C         56.02183        50.70176         0.67802
C         57.26906        52.85511         0.85051
C         56.08486        52.19052         0.70825
C         57.27062        54.35003         1.10540
C         56.15845        55.03601         0.29615
C         57.35069        57.18417         1.07929
C         56.09705        56.50056         0.60951
C         57.34798        58.64786         0.75286
C         56.11480        59.34097         0.85170
C         57.31032        61.49307         0.89004
C         56.08025        60.77383         0.91445
C         57.29081        62.94744         0.89147
C         56.00886        63.59569         0.95183
C         59.87685        37.16659         0.53094
C         58.71339        37.83005         0.54526
C         59.87334        40.04396         0.41605
C         58.62711        39.25981         0.04853
C         59.86300        41.41670         0.41340
C         58.60494        42.15708         0.26560
C         59.88292        44.28416         0.27079
C         58.63313        43.57733         0.18868
C         59.91088        45.68181         0.16129
C         58.69474        46.45499        -0.26444
C         59.89011        48.56978         0.38786
C         58.61600        47.76425         0.58830
C         59.87825        49.99149         0.54289
C         58.61605        50.65668         0.94052
C         59.84692        52.90930         0.81528
C         58.57863        52.16550         1.00608
C         59.83872        54.32792         0.70668
C         58.58821        55.06304         0.79393
C         59.74299        57.17064         0.03434
C         58.57423        56.42497         0.63581
C         59.79266        58.64877         0.38827
C         58.55926        59.35244         0.64390
C         59.81067        61.47481         0.79927
C         58.52819        60.77342         0.76850
C         59.78183        62.99158         0.82058
C         58.48162        63.68785         0.76186
C         59.72868        65.81589         0.58189
C         58.54162        65.11163         0.63936
C         62.50318        35.73584         0.19866
C         62.41965        37.14379         0.43304
C         61.14095        37.88621         0.10617
C         62.39227        40.04041         0.55581
C         61.11606        39.27020         0.77073
C         62.35149        41.43317         0.49614
C         61.11417        42.15896         0.49953
C         62.36290        44.30927         0.55790
C         61.11974        43.56317         0.44089
C         62.34778        45.75214         0.49296
C         61.12201        46.41948         0.30608
C         62.33957        48.57585        -0.00602
C         61.07842        47.86398         0.22251
C         62.32876        50.11027         0.14527
C         61.05705        50.76070         0.51876
C         62.32769        52.88522         0.95959
C         61.04911        52.16940         0.76685
C         62.34464        54.40561         0.82367
C         61.05051        55.07153         0.56422
C         62.27090        57.14900         0.10685
C         61.05077        56.44944         0.28327
C         62.21732        58.60803        -0.30484
C         60.97960        59.36007         0.16636
C         62.22376        61.53761         0.19623
C         61.02151        60.77028         0.33161
C         62.23528        62.91863         0.33355
C         60.96098        63.70257         0.19387
C         62.21789        65.89105         0.52713
C         61.01201        65.18520         0.52540
C         62.30788        67.31961         0.39802
C         64.76180        35.68623         1.24185
C         63.63385        35.02733         0.48719
C         64.83808        37.16424         0.91773
C         63.60775        37.86432         0.71533
C         64.85507        39.98727         0.73566
C         63.61810        39.30898         0.64612
C         64.89860        41.45325         0.58031
C         63.60563        42.20016         0.43759
C         64.82117        44.37978         1.10609
C         63.57208        43.64099         0.68515
C         64.83173        45.79714         0.60129
C         63.60454        46.47500         0.46132
C         64.81942        48.60105         0.19149
C         63.61109        47.87833         0.20920
C         64.81268        50.04950         0.24731
C         63.61789        50.74858         0.42487
C         64.90169        52.95034         0.45851
C         63.62680        52.15643         0.81596
C         64.76990        54.37545         0.12671
C         63.59278        55.07039         0.36033
C         64.75992        57.20824        -0.17967
C         63.51386        56.48475         0.06925
C         64.76896        58.62058        -0.14000
C         63.47760        59.33514         0.22077
C         64.76525        61.50821         0.23801
C         63.48385        60.80657        -0.22642
C         64.72506        63.01470        -0.11080
C         63.50667        63.65728         0.51994
C         64.77385        65.90034         0.40983
C         63.50632        65.16591         0.64292
C         64.77514        67.27090         0.20699
C         63.50274        67.96460         0.22577
C         67.38596        32.86555         1.03866
C         66.14762        33.58933         1.17047
C         67.34061        35.72354         1.16078
C         66.08571        34.95123         1.15117
C         67.32169        37.15632         0.83605
C         66.06350        37.86064         0.88977
C         67.33492        40.01137         0.79279
C         66.07245        39.28785         0.83012
C         67.34593        41.39641         0.87301
C         66.08508        42.15333         1.20157
C         67.30446        44.31579         0.68684
C         66.12177        43.63532         0.88105
C         67.30947        45.77044         0.49431
C         66.06224        46.48237         0.43901
C         67.29887        48.60338         0.13049
C         66.06339        47.89813         0.25305
C         67.28422        50.03749        -0.02064
C         66.06826        50.75982         0.13210
C         67.23599        52.85039        -0.39582
C         66.07121        52.17332         0.00536
C         67.15289        54.26734        -0.83215
C         65.81449        55.01706        -0.77467
C         67.16585        57.20537        -0.65524
C         65.96121        56.50301        -0.47227
C         67.17256        58.62015        -0.58668
C         65.96978        59.32585        -0.35572
C         67.21333        61.59361        -0.60383
C         65.94682        60.81294        -0.42439
C         67.27210        63.00550        -0.15189
C         66.03926        63.65114         0.29554
C         67.30753        65.86207         0.19081
C         66.05077        65.17247         0.49053
C         67.28606        67.28245         0.05223
C         66.04180        67.98932         0.06157
C         67.28674        70.07446        -0.17851
C         66.08296        69.39115        -0.06684
C         69.76491        31.29669         0.32966
C         69.90251        32.74863         0.71613
C         68.58708        33.48588         0.86336
C         69.78206        35.67702         0.33793
C         68.66491        34.95673         0.98081
C         69.69223        37.05431         0.13615
C         68.50341        37.81309         0.47657
C         69.71675        39.95134         0.17013
C         68.54278        39.26803         0.47268
C         69.88164        41.36641         0.51064
C         68.59205        42.15093         0.87802
C         69.78328        44.25592         0.42522
C         68.57954        43.60124         0.64491
C         69.79628        45.74043         0.48108
C         68.51400        46.47345         0.36393
C         69.76149        48.60622        -0.09350
C         68.52527        47.89031         0.14976
C         69.73630        50.01920        -0.30977
C         68.49492        50.74307        -0.25882
C         69.70531        52.88329        -0.65059
C         68.46522        52.15261        -0.49074
C         69.70886        54.30438        -0.71636
C         68.44746        55.02132        -1.03082
C         69.70294        57.20004        -0.59328
C         68.44948        56.54634        -1.16284
C         69.71567        58.60002        -0.43845
C         68.46535        59.34391        -0.75155
C         69.71889        61.54873        -0.26726
C         68.50428        60.84469        -0.70290
C         69.73065        62.94369        -0.17193
C         68.47774        63.68563        -0.08370
C         69.75535        65.82074        -0.03830
C         68.50459        65.12730         0.06878
C         69.76524        67.24877        -0.08192
C         68.52647        67.98182        -0.07574
C         69.78841        70.12115        -0.26681
C         68.52796        69.40154        -0.17684
C         69.82662        71.53228        -0.36317
C         71.84317        31.37864        -0.92327
C         70.72267        30.65632        -0.37885
C         71.91994        32.74047        -0.80759
C         70.90720        33.50758        -0.13805
C         72.01977        35.64604        -0.73252
C         70.90172        34.90710        -0.17384
C         71.98430        36.98561        -0.90898
C         70.76449        37.75003        -0.61174
C         72.01753        40.05407        -0.84303
C         70.78854        39.28367        -0.58420
C         72.10119        41.38668        -0.59129
C         71.01699        42.14131        -0.00487
C         72.17308        44.31019        -0.28525
C         71.00478        43.53996         0.10821
C         72.21618        45.66060        -0.28854
C         71.07595        46.47654         0.16965
C         72.16894        48.62382        -0.49248
C         71.00033        47.91883        -0.17276
C         72.14947        50.00243        -0.66416
C         70.94967        50.72649        -0.54415
C         72.14291        52.91385        -0.60368
C         70.93893        52.17868        -0.61496
C         72.13089        54.29599        -0.53726
C         70.91647        55.01387        -0.57125
C         72.05987        57.16122        -0.01539
C         70.89828        56.47111        -0.41288
C         72.05714        58.54092         0.14752
C         70.89756        59.28999        -0.09326
C         72.17909        61.50986        -0.21119
C         70.92495        60.77890         0.19707
C         72.18368        62.86678        -0.27979
C         70.97747        63.64957        -0.11971
C         72.19898        65.81867        -0.13255
C         70.98478        65.08224        -0.09648
C         72.20511        67.19885        -0.16409
C         71.00371        67.95077        -0.16295
C         72.23186        70.12415        -0.32396
C         71.01650        69.39962        -0.24794
C         72.24150        71.50691        -0.41620
C         71.03033        72.21660        -0.43740
O         53.86086        47.51329        -2.32623
O         64.50138        41.90213        -0.74244
O         60.04138        62.27382         2.04475
O         70.67145        46.23014         1.56657
O         64.57838        52.55041         1.83836
O         63.59384        64.26550         1.82868
O         58.66606        51.33739         2.23530
O         56.43531        50.06838         1.96587
O         62.34766        53.75546         2.13610
O         62.30602        49.46169        -1.17069
O         66.31558        61.33951        -1.74585
O         52.43535        45.17914         1.41137
O         70.28242        38.54264        -1.75638
O         68.24622        35.45002         2.28667
O         66.13843        64.22715         1.61522
O         68.63088        60.12357        -1.99708
O         49.89432        53.44182        -2.24998
O         45.69056        50.14886        -1.74314
O         69.54631        41.70331         1.89557
O         67.76066        54.39564        -2.16579
O         52.28334        54.64102        -1.80411
H         51.40722        54.22520        -2.12174
O         57.33630        39.83949         1.98253
H         56.51831        40.26796         2.31177
O         55.57264        47.54599         1.50316
H         55.73959        48.36111         2.04166
O         64.37898        35.61193         2.66406
H         63.55930        36.14032         2.77283
O         68.48440        56.81871        -2.59145
H         68.52291        57.79190        -2.71605
O         53.51613        58.93843         2.66098
H         52.91708        59.61377         3.04956
O         54.48818        52.95749         2.26877
H         55.23039        53.46375         2.67833
O         59.53200        57.15529        -1.42272
H         60.31226        57.60205        -1.82842
O         44.74810        48.79027         1.52833
H         44.74494        47.90203         1.94240
O         64.54096        63.26006        -1.51899
H         65.06402        62.57744        -2.01500
O         51.28756        56.11255         2.20703
H         51.93289        56.75193         2.58360
O         62.16227        58.59397        -1.76746
H         62.88107        58.00579        -2.08809
O         70.48928        32.73758         2.06729
H         71.35220        32.27619         2.00427
O         51.06198        51.19927         1.39803
H         51.30031        50.43037         1.95630
O         65.24602        54.95106        -2.11698
H         66.01487        54.95838        -2.73752
O         63.35330        59.31321         1.66969
H         63.37532        58.37754         1.96576
O         63.52896        60.84593        -1.66638
H         62.80133        60.27505        -2.01477
O         55.54650        49.19789        -1.80300
H         54.97587        48.75399        -2.50830
O         56.94197        54.48652         2.52748
H         57.59192        53.94959         3.03221
O         48.16828        56.20230         1.95061
H         48.96042        55.91214         2.45586
O         56.27932        46.58659        -1.97433
H         55.36610        46.84961        -2.32474
O         65.89548        42.01858         2.64337
H         66.71798        42.31457         3.08741
O         58.57237        39.22870        -1.40045
H         59.44132        38.86633        -1.70723
O         57.34967        57.16768         2.55373
H         57.14888        56.23794         2.83229
O         64.68338        44.51021         2.57620
H         65.44812        45.03538         2.89530
O         51.11900        59.85469        -0.79317
H         50.90167        59.10019        -1.38177
O         64.94813        61.43824         1.65580
H         64.37977        60.72182         2.02915
O         51.64820        51.75897        -2.14160
H         51.01560        52.26044        -2.73158
O         53.75305        56.85090        -1.51162
H         53.16389        56.18943        -1.96108
O         60.66298        63.67267        -1.25094
H         61.46359        63.97207        -1.73307
O         47.83725        57.31129        -1.56039
H         47.72429        56.41499        -1.98383
O         58.56044        47.30862         1.97178
H         58.26707        48.06139         2.52874
O         56.55209        54.89142        -1.09810
H         55.91296        55.39848        -1.64517
O         51.96854        49.02149        -2.19132
H         52.59717        48.49029        -2.77083
O         61.04267        38.99630         2.20846
H         60.88070        39.84543         2.67092
O         61.11356        38.09200        -1.34010
H         61.29698        37.23121        -1.77181
O         47.61733        54.68289        -2.08818
H         48.47004        54.20666        -2.38371
O         70.88134        60.84401         1.67877
H         70.94703        61.79055         1.93045
O         58.90799        46.85733        -1.63997
H         58.01625        46.92689        -2.07260
O         47.34542        50.32190         1.50919
H         48.17334        49.99795         1.92190
H         37.45036        49.00001        -0.75870
H         35.32928        50.24464        -0.72353
H         37.45733        53.96131        -0.29356
H         35.33362        52.73765        -0.48695
H         39.08554        48.05843        -0.75782
H         39.09509        54.88229        -0.12683
H         41.17624        46.83757        -0.69690
H         41.19752        56.07325         0.04023
H         44.94638        44.68801        -0.45042
H         42.85454        45.87457        -0.69996
H         44.92545        58.19001         0.38361
H         42.82417        56.96964         0.35674
H         46.56158        43.73608        -0.03423
H         46.51934        59.20389         0.28103
H         48.67090        42.54556         0.09121
H         48.58354        60.30393         0.95166
H         52.38760        40.40780        -0.33446
H         50.29905        41.62413        -0.37805
H         52.33012        62.34000         1.92943
H         50.25057        61.07735         1.77562
H         54.07164        39.47684        -0.53093
H         53.88631        63.44595         1.07914
H         56.12430        38.22599        -0.15897
H         55.96710        64.69329         0.95257
H         59.93066        36.12091         0.87153
H         57.79309        37.32429         0.87512
H         59.67593        66.91368         0.61773
H         57.60645        65.68847         0.66072
H         61.63602        35.22130        -0.24462
H         61.38356        67.91385         0.38524
H         63.66093        33.94413         0.30237
H         63.48765        69.05507         0.09808
H         67.31670        31.76916         1.02280
H         65.22477        32.99611         1.23876
H         67.25205        71.16824        -0.26564
H         65.15318        69.97487        -0.07118
H         68.93540        30.71764         0.75922
H         68.89302        72.11000        -0.38011
H         72.61639        30.82782        -1.47582
H         70.64632        29.57619        -0.57050
H         72.74980        33.25821        -1.30809
H         72.93821        35.10665        -0.99944
H         72.84560        37.50523        -1.35099
H         72.86117        39.54641        -1.33075
H         73.02908        41.90618        -0.86662
H         73.06784        43.76613        -0.61558
H         73.12444        46.16213        -0.65042
H         73.12984        48.09806        -0.56666
H         73.09401        50.51592        -0.88400
H         73.11105        52.39722        -0.59000
H         73.08909        54.82813        -0.48348
H         72.99028        56.61308         0.18037
H         72.97759        59.04327         0.47450
H         73.11668        60.95297        -0.35151
H         73.12964        63.38188        -0.49929
H         73.16102        65.28953        -0.14273
H         73.17523        67.71117        -0.20208
H         73.19313        69.59389        -0.30999
H         73.19651        72.04714        -0.47346
H         71.03596        73.31277        -0.51158
