         274
 CSIRO Nanostructure Databank - Neutral Graphene Oxide Data Set
C        -11.55668         0.51310        -0.36258
C        -10.33279         1.29434        -0.21907
C         -9.05923         0.56677        -0.34691
C         -7.96573         1.14133        -1.10243
C         -6.59572         0.48965        -1.10720
C         -5.29082         1.24222        -1.35395
C         -3.90451         0.49431        -1.42510
C         -2.69663         1.33023        -0.96234
C         -1.33853         0.64333        -1.20315
C         -0.10549         1.49684        -0.86292
C          1.17770         0.72807        -1.02664
C          2.44060         1.41700        -1.47672
C          3.79612         0.62915        -1.48888
C          5.05213         1.46523        -1.27064
C          6.38099         0.73522        -1.06623
C          7.63523         1.49179        -0.70726
C          8.83720         0.69923        -0.36066
C          9.93067         1.36916         0.26418
C         11.13511         0.57975         0.54234
C        -10.23565         2.64486         0.04374
C         -8.96320         3.31899         0.21885
C         -7.61365         2.59538         0.23564
C         -6.50266         3.36756        -0.49404
C         -5.31974         2.76609        -1.20947
C         -3.99877         3.56248        -1.48009
C         -2.74168         2.82582        -0.98987
C         -1.43412         3.58713        -1.12415
C         -0.13844         2.85168        -0.96400
C          1.10800         3.65253        -1.22573
C          2.40971         2.94250        -1.52387
C          3.69338         3.70631        -1.24827
C          4.97321         2.93276        -1.01003
C          6.05589         3.48638        -0.11028
C          7.36916         2.76812         0.04343
C          8.55697         3.43515         0.77097
C          9.87114         2.73433         0.51747
C         -8.87192         4.66772         0.46580
C         -7.58637         5.34578         0.55773
C         -6.43770         4.71633         0.10840
C         -5.20265         5.50515        -0.09553
C         -4.05965         5.02164        -0.94117
C         -2.77156         5.84833        -0.96711
C         -1.44515         5.08926        -1.00028
C         -0.16930         5.81497        -0.61029
C          1.12881         5.09532        -0.76295
C          2.35204         5.97843        -1.10202
C          3.67413         5.17816        -0.97827
C          4.76227         5.73737        -0.09323
C          5.91976         4.90974         0.36726
C          7.15121         5.55813         1.03476
C          8.45584         4.92569         0.61690
C         -7.52851         6.73534         0.98903
C         -6.33836         7.40463         1.13016
C         -5.09659         6.60780         0.93349
C         -3.97560         8.23240        -0.44007
C         -2.75569         7.34130        -0.67764
C         -1.46276         7.82604        -0.00380
C         -0.21092         7.34061        -0.78599
C          1.08477         8.12269        -0.36853
C          2.34963         7.27085        -0.29995
C          3.48390         7.83266         0.21145
C          4.84813         7.25388        -0.11758
C          5.99232         7.79207         0.71412
C          7.10758         7.06671         0.99219
C         -6.23641         8.78949         1.55706
C         -5.12657         9.56601         1.42159
C         -3.89984         9.19008         0.71883
C         -2.70607         9.77311         0.98799
C         -1.44455         9.36423         0.26443
C         -0.22355         9.67346         1.09016
C          0.96848         9.06065         0.82847
C          2.19898         9.56163         1.38714
C          3.42115         9.06525         0.99455
C          4.65218         9.72498         1.37886
C          5.87313         9.15883         1.18945
C        -11.66008        -0.85042        -0.25627
C        -10.63359        -1.69329         0.35949
C         -8.84848        -0.51093         0.45596
C         -7.62776        -1.30970         0.46751
C         -6.50183        -0.86596        -0.42925
C         -5.19027        -1.54854        -0.24234
C         -3.89924        -0.92065        -0.73559
C         -2.57808        -1.51568        -0.31441
C         -1.27496        -0.78654        -0.60066
C          0.02448        -1.36284        -0.11194
C          1.30401        -0.50483        -0.13065
C          2.50852        -1.43819        -0.54340
C          3.78877        -0.59653        -0.57623
C          5.08409        -1.30333        -0.31872
C          6.44997        -0.65768        -0.46683
C          7.62096        -1.48506        -0.97844
C          8.97202        -0.66955        -0.83778
C         10.25798        -1.46557        -0.64283
C         11.24873        -0.72399         0.22455
C        -10.18654        -2.95809         0.13244
C         -9.03451        -3.55838         0.97797
C         -7.70667        -2.74213         0.90966
C         -6.41159        -3.54321         1.01401
C         -5.14299        -2.69630         0.73883
C         -3.84242        -3.39723         0.94486
C         -2.53408        -2.69201         0.63239
C         -1.22909        -3.34508         0.99417
C          0.10883        -2.58665         0.83154
C          1.31575        -3.43157         0.40874
C          2.62897        -2.62653         0.47118
C          3.87655        -3.49048         0.22860
C          5.05357        -2.80532        -0.40318
C          6.32459        -3.58517        -0.63796
C          7.62554        -2.89787        -0.66572
C          8.83125        -3.59536        -0.34563
C         10.03064        -2.90871        -0.22028
C         -8.80110        -5.00936         0.56309
C         -7.63555        -5.61928         0.24545
C         -6.35191        -4.86872         0.30482
C         -5.03783        -5.57380         0.44854
C         -3.86063        -4.91241         1.22491
C         -2.52411        -5.56865         0.85952
C         -1.22739        -4.85036         1.20686
C          0.03915        -5.62727         0.97709
C          1.29699        -4.91929         0.52581
C          2.58643        -5.70970         0.78384
C          3.87220        -4.97533         0.37939
C          5.04603        -5.78910        -0.11008
C          6.31820        -5.08672        -0.48358
C          7.60510        -5.76336        -0.19048
C          8.75211        -5.04085        -0.08809
C         -7.59132        -7.14179         0.04905
C         -6.22513        -7.68768        -0.44480
C         -5.06939        -7.06825         0.34647
C         -3.79055        -7.81556         0.45221
C         -2.51685        -7.04219         0.61163
C         -1.28670        -7.86637         1.03644
C         -0.03666        -7.09600         0.60891
C          1.22196        -7.86602         0.35355
C          2.53377        -7.13600         0.24639
C          3.80117        -7.91335         0.29690
C          5.10918        -7.20330         0.34365
C          6.26542        -7.92375         0.26026
C          7.60475        -7.28444        -0.06468
C         -6.15348        -9.19995        -0.31545
C         -4.98060        -9.85112        -0.27262
C         -3.68064        -9.08378        -0.39733
C         -2.40940        -9.84648        -0.08987
C         -1.30215        -9.27075         0.41235
C         -0.06229       -10.07234         0.76416
C          1.26403        -9.34164         0.55335
C          2.43753       -10.00898         0.66207
C          3.77037        -9.32009         0.86150
C          5.02581       -10.05805         0.46524
C          6.18728        -9.38577         0.29212
O         -9.85980        -0.95081         1.31125
O         -4.72755        -7.79481         1.56767
O         -6.42767         3.35666        -1.96160
O          4.31309        -4.11393         1.49816
O         -7.44204        -1.67150         1.89075
O          1.26905         9.14132        -1.34634
O          4.73203         5.10566         1.22538
O          1.56696         0.71208        -2.42262
O         -3.21524        -1.89913        -1.57086
O          2.21517         6.37119        -2.47692
O          3.18347        -7.53186        -0.98863
O         -4.90859         8.28177        -1.22061
O          2.27370        -2.00427        -1.82081
H          2.33162        -1.29654        -2.50504
O         -7.26406         1.93038         1.24834
H          2.24967         5.55296        -3.02651
O         -2.38684        -6.10119        -0.49569
O          1.17118        -4.26174        -0.76524
O         -6.07201         0.65972        -2.44843
O          6.26958         2.55175         1.00206
O          5.31094         2.42741        -2.33667
O         -2.87858         2.08051         0.26787
O         -7.90950        -7.76466         1.29720
H         -7.13189        -7.69555         1.89153
O         -1.35159         4.43467        -2.30440
O         -9.46122        -3.57901         2.34787
H         -9.51897        -2.64315         2.64436
O         -6.39591        -3.93171         2.41068
H         -6.53367        -3.11456         2.94227
O          7.28842         1.19832        -2.09662
O          8.34112        -0.99648        -2.11844
O         -1.95774        -2.51662         1.96477
O         -4.44497        -2.52329         1.98241
O          5.45906        -5.69196        -1.50474
O         10.89882        -1.58169        -1.95079
H         10.17501        -1.66985        -2.61332
O          8.43085         3.13592         2.20312
H          7.79897         3.80124         2.58952
O          4.39147        -0.54875         0.73619
O          1.52885         0.10124         1.14623
H          1.70203        -0.61412         1.81047
O         -1.32670        -8.06630         2.41656
O         -6.08782        -1.91876        -1.34845
O          5.14999         7.63039        -1.48676
O         -1.23386         0.51079        -2.62429
H         -0.61227        -0.22633        -2.82062
O          2.63745        -5.92558         2.21602
H          3.07961        -5.14849         2.62773
O         -1.35284        10.07304        -0.98504
H         -0.43454         9.91254        -1.33781
O          0.33883        -7.41773        -0.74866
O          0.53976         5.29876         0.55563
O         -1.40168         7.17371         1.28273
H         -2.28135         7.22659         1.72207
O         -0.44275        -1.66471        -1.44226
O          5.42146        -3.18155        -1.74988
O          1.61737         3.50591        -2.59807
O         -3.87556         3.64467        -2.89746
H         -4.48152         4.34785        -3.21638
O          6.88081        -0.46424         0.92689
H          6.13934        -0.03827         1.41929
O         -0.42711        -5.32071         2.32235
O          6.97821         5.30072         2.48612
H          6.00302         5.31528         2.64408
H          4.32053         7.59707        -2.01378
O         -4.13451         6.67307         1.69811
O          8.60359        -7.71205         0.86727
H          8.26011        -7.58456         1.77487
O         -5.41394        -4.92457        -0.81589
O          4.06561         4.69423        -2.28289
O         -3.55062        -8.66155        -1.77776
H         -4.40588        -8.24850        -2.05735
O         -2.72950         6.83972        -2.03081
O         -4.01655        -5.15447         2.61764
H         -4.81162        -4.65331         2.92631
O         -6.05103        -7.35150        -1.84271
H         -5.84405        -6.38497        -1.89459
O         -3.67795         0.27960        -2.80917
H         -4.36304        -0.33033        -3.15498
O         -8.33085         1.75720        -2.23659
H         -7.51678         1.98004        -2.75995
O         -5.12460         5.80155        -1.54119
O          3.93556         0.06141        -2.80741
H          4.10107         0.79619        -3.43887
O         -0.38431         7.56267        -2.18145
H          0.30771         8.22545        -2.44936
O          0.43244        -2.11773         2.15336
H         -0.41352        -1.92649         2.62327
O          2.79732        -2.09784         1.79025
H          3.24969        -2.77599         2.34034
O          3.88887        -9.13295         2.31420
H          3.03871        -8.77548         2.64968
O         -0.16432       -10.37159         2.16150
H         -0.58657        -9.56828         2.59563
H         12.16409        -1.27031         0.49726
H         11.94020         1.07659         1.10421
H         10.77529         3.23404         0.89949
H          9.36700         5.53190         0.75299
H          7.91952         7.56216         1.54984
H          6.78256         9.67152         1.53663
H          4.57430        10.71564         1.85051
H          2.15112        10.43517         2.05572
H         -0.28328        10.44265         1.87755
H         -2.63407        10.53787         1.77979
H         -5.14506        10.57487         1.86429
H         -7.12984         9.22709         2.02945
H         -8.47773         7.25155         1.19840
H         -9.78494         5.27461         0.56942
H        -11.14864         3.24907         0.16374
H        -12.45581         1.06952        -0.67366
H        -12.60882        -1.32791        -0.54681
H        -10.70687        -3.61005        -0.58422
H         -9.70875        -5.63327         0.59644
H         -8.38635        -7.43998        -0.68009
H         -7.10271        -9.75357        -0.25811
H         -4.95594       -10.94880        -0.19371
H         -2.36273       -10.89328        -0.43408
H         -0.05695       -11.04206         0.20022
H          2.41213       -11.09746         0.83259
H          5.00889       -11.15729         0.42424
H          7.11559        -9.93869         0.08479
H          7.91953        -7.68824        -1.06785
H          9.68863        -5.56343         0.15865
H         10.93743        -3.48277         0.02489
