         236
 CSIRO Nanostructure Databank - Neutral Graphene Oxide Data Set
C        -10.98193         0.63014        -1.08378
C        -10.01821         1.39353        -0.21656
C         -8.71258         0.66928        -0.01511
C         -7.55849         1.42834         0.32653
C         -6.50277         0.71074         1.14148
C         -5.13191         1.42104         1.21896
C         -3.89403         0.82612         0.52783
C         -2.56852         1.50688         0.86512
C         -1.31989         0.78040         0.66814
C         -0.11246         1.43491         0.73875
C          1.17676         0.70373         0.79171
C          2.47774         1.45222         0.58797
C          3.73094         0.69645         0.39487
C          4.93283         1.43363         0.11917
C          6.20723         0.78189         0.19190
C          7.38951         1.47987         0.00661
C          8.67751         0.80289         0.17919
C          9.96797         1.58152        -0.17186
C         11.15190         0.76516        -0.50735
C         -9.85031         2.83915        -0.58898
C         -8.68793         3.54326        -0.28289
C         -7.53816         2.82227         0.23911
C         -6.22258         3.55959         0.30151
C         -5.13875         2.90775         1.14571
C         -3.82475         3.63436         1.17875
C         -2.56687         2.87194         1.06189
C         -1.32208         3.66642         1.11801
C         -0.03822         2.90105         0.95590
C          1.09644         3.60343         0.27046
C          2.35153         2.82687         0.02635
C          3.61390         3.54213        -0.31749
C          4.90657         2.85401        -0.13331
C          6.07981         3.60625        -0.24803
C          7.35106         2.87036        -0.57935
C          8.63108         3.67464        -0.47687
C          9.85569         2.96956        -0.58086
C         -8.61037         4.95897        -0.45470
C         -7.44667         5.73267        -0.19264
C         -6.24824         5.07395         0.32588
C         -5.08411         5.77179         0.53855
C         -3.82862         5.12387         1.02114
C         -2.52873         5.82011         0.80285
C         -1.34124         5.12783         0.80196
C         -0.06837         5.81111         0.54505
C          1.12576         5.08935         0.26874
C          2.33694         5.77608         0.02858
C          3.57433         5.04359        -0.36644
C          4.86635         5.74505        -0.31487
C          6.05229         5.05060        -0.29444
C          7.34591         5.81236        -0.08006
C          8.57259         5.05756        -0.52112
C         -7.44554         7.11501        -0.41573
C         -6.20623         7.88364        -0.39649
C         -4.96092         7.17817         0.09684
C         -3.87955         8.03730         0.73143
C         -2.54731         7.29913         0.84382
C         -1.25353         8.02181         0.62055
C         -0.03160         7.21931         0.41495
C          1.18801         7.90454         0.22675
C          2.39174         7.18519         0.14276
C          3.74537         7.86602         0.34799
C          4.76598         7.21603        -0.60298
C          6.09983         7.91494        -0.64395
C          7.27263         7.24894        -0.54689
C         -6.18836         9.36255        -0.38925
C         -5.02837        10.05054        -0.24839
C         -3.76292         9.39569         0.05429
C         -2.56386        10.03032        -0.13440
C         -1.27477         9.41215         0.10407
C         -0.08264        10.02947        -0.17146
C          1.19516         9.35787         0.01858
C          2.37895        10.02559        -0.09975
C          3.72347         9.43359         0.25424
C          4.83537        10.00504        -0.60673
C          5.96986         9.34542        -0.91763
C        -10.88664        -0.70768        -1.22323
C         -9.78287        -1.46848        -0.65346
C         -8.68063        -0.75053        -0.06852
C         -7.54611        -1.50691         0.37541
C         -6.38267        -0.79724         0.93252
C         -5.04066        -1.51107         0.89233
C         -3.84728        -0.70956         0.48940
C         -2.56923        -1.45682         0.26662
C         -1.30349        -0.65392         0.24244
C         -0.01215        -1.42547         0.26210
C          1.23625        -0.74215         0.61303
C          2.45612        -1.42921         0.62843
C          3.70388        -0.68755         0.63214
C          4.98165        -1.39882         0.83988
C          6.27206        -0.63734         0.62318
C          7.51267        -1.36154         0.24326
C          8.69245        -0.67332         0.05214
C          9.94673        -1.37407        -0.16794
C         11.14883        -0.58550        -0.41666
C         -9.73881        -2.85628        -0.75650
C         -8.60801        -3.60482        -0.32922
C         -7.49516        -2.89802         0.21370
C         -6.29177        -3.65223         0.64738
C         -4.98223        -2.96004         0.61069
C         -3.77810        -3.63547         0.42515
C         -2.52196        -2.93732         0.39997
C         -1.26715        -3.59010         0.29585
C         -0.03887        -2.89645         0.31807
C          1.22547        -3.57210         0.35849
C          2.43649        -2.87009         0.51644
C          3.68753        -3.69393         0.78040
C          5.00606        -2.90879         0.81293
C          6.27077        -3.59912         0.38901
C          7.45215        -2.79440        -0.03739
C          8.78887        -3.57040        -0.20780
C         10.00226        -2.75456        -0.14282
C         -8.52055        -5.01432        -0.58405
C         -7.40798        -5.77455        -0.25876
C         -6.30474        -5.16250         0.51159
C         -5.01181        -5.86292         0.56059
C         -3.84168        -5.10613         0.00267
C         -2.49463        -5.84268         0.12456
C         -1.22520        -5.06465         0.19226
C          0.07238        -5.76688         0.32881
C          1.23123        -5.02369         0.23429
C          2.46277        -5.66058        -0.27535
C          3.74664        -4.88436        -0.18731
C          5.02255        -5.62743        -0.43948
C          6.28229        -4.99374        -0.09105
C          7.52119        -5.72257        -0.07782
C          8.74786        -5.00625         0.05642
C         -7.16411        -7.06637        -0.85606
C         -6.03784        -7.80420        -0.58453
C         -5.10975        -7.35885         0.52436
C         -3.74460        -8.04743         0.57365
C         -2.46175        -7.27618         0.58978
C         -1.10714        -8.03068         0.59153
C          0.09011        -7.20210         0.16157
C          1.28501        -7.86313        -0.07077
C          2.52437        -7.13744        -0.28752
C          3.72617        -7.82137        -0.26400
C          4.99167        -7.16046        -0.60379
C          6.31295        -7.93314        -0.61042
C          7.49644        -7.13447        -0.11642
C         -5.75169        -9.07709        -1.20866
C         -4.71722        -9.86527        -0.83565
C         -3.73247        -9.54591         0.28201
C         -2.37079       -10.06055        -0.14111
C         -1.21383        -9.37484        -0.11039
C          0.05642       -10.02333        -0.64388
C          1.32408        -9.32211        -0.20479
C          2.50568        -9.97077        -0.05801
C          3.72210        -9.18986         0.38940
C          5.03726        -9.91467         0.28061
C          6.19411        -9.32311        -0.03655
O         -5.14978         7.34042        -1.33009
O          4.96023        -6.27969        -1.76564
O        -10.64165         1.42469         1.13451
H         -9.94200         1.69619         1.76861
O          3.50262        -4.27991         2.09738
H          4.35292        -4.17365         2.58730
O          0.01191       -10.01050        -2.08519
H          0.11354        -9.08418        -2.38729
O          5.75530        -0.86430         1.97382
O         -5.68201         3.32635        -1.06106
H         -6.27026         3.78746        -1.69720
O          1.34005         2.94778        -1.02635
O          2.95290        -4.81766        -1.39865
O         -1.76074        -5.62904        -1.12022
O         -3.86031         4.53370         2.35995
O          3.47906         4.23768        -1.60223
O         -0.58069        -0.85952        -1.01584
O          7.91923        -3.16872        -1.35291
O         -1.78839         7.84738         1.98908
O         -0.43074         3.37762         2.26511
O          4.14972         7.48911         1.67841
H          3.75620         8.14423         2.29942
O         -5.17239         2.21365         2.43662
O          5.91980        -3.44169         1.83052
O         -3.46159        -1.12220        -0.86918
O         -0.78394        -8.35787         1.97195
H         -1.64516        -8.49353         2.43697
O          4.00053         9.96483         1.59158
H          4.96757         9.89926         1.74350
O          1.96114         1.25086         1.93484
O          4.18359         7.33394        -1.93144
H          4.59936         6.66579        -2.51566
O          7.51451         5.91438         1.38265
H          7.53006         5.00397         1.74787
O         -6.60654        -4.50681         1.80572
O         -7.12371         0.81328         2.45593
H         -6.56986         0.29324         3.08107
O         -5.72607        -1.30064         2.16373
O          6.68666        -8.14058        -2.01356
H          6.36105        -7.34305        -2.49825
O         -3.15154        -7.57624         1.84367
O          9.51392         1.36277         1.23372
O         -4.16004        -5.03928        -1.43066
H         -3.28919        -4.97461        -1.89763
O         -5.77395        -7.80730         1.75636
H         -5.26586        -7.42047         2.50371
O          7.26155         2.61164        -2.04153
H          6.33926         2.33929        -2.23974
O         -4.14982         1.23606        -0.84599
H         -3.65318         0.61628        -1.43349
O          3.56214        -8.95258         1.83097
H          2.64474        -8.63718         1.98181
O         -4.34832         8.28882         2.07929
H         -3.54691         8.43158         2.63528
O         -4.16516       -10.25370         1.46627
H         -4.95137        -9.76784         1.80867
H         12.07171        -1.14181        -0.63972
H         12.06703         1.29284        -0.81615
H         10.77125         3.51125        -0.86676
H          9.51893         5.62187        -0.56178
H          8.22347         7.80083        -0.62369
H          6.80508         9.87536        -1.40221
H          4.75838        11.08057        -0.83312
H          2.36538        11.10850        -0.30191
H         -0.07346        11.06902        -0.53347
H         -2.56228        11.04721        -0.55900
H         -5.02628        11.14582        -0.36139
H         -7.13220         9.89493        -0.57927
H         -8.39022         7.62858        -0.65060
H         -9.49976         5.47933        -0.84136
H        -10.73813         3.38952        -0.93631
H        -11.82456         1.17931        -1.52976
H        -11.63869        -1.26004        -1.80711
H        -10.58554        -3.38938        -1.21448
H         -9.33321        -5.48133        -1.16225
H         -7.88976        -7.44063        -1.59558
H         -6.43410        -9.41881        -2.00322
H         -4.58958       -10.84156        -1.32787
H         -2.36603       -11.08030        -0.56093
H          0.08687       -11.09907        -0.33772
H          2.56633       -11.06486        -0.16133
H          5.04456       -10.96074         0.62537
H          7.12529        -9.91105        -0.02240
H          8.45923        -7.66897        -0.08360
H          9.68346        -5.54899         0.25148
H         10.97972        -3.26032        -0.13493
