         324
 CSIRO Nanostructure Databank - Neutral Graphene Oxide Data Set
C          2.57713         2.01129         3.39854
C          2.52831         3.40836         3.37424
C          3.65354         1.33148         2.84672
C          3.57513         4.18193         2.81530
C          2.31279         6.33362         3.11503
C          2.27142         7.70207         3.14319
C          3.48873         5.60722         2.76208
C          3.40411         8.53119         2.70861
C          1.91049        10.71625         2.55525
C          1.67631        11.92975         2.03189
C          3.19978        10.00392         2.39979
C          2.57424        12.67473         1.06292
C          1.62690        14.90231         1.85615
C          1.66215        16.33322         1.97690
C          2.66644        14.17490         1.34126
C          2.73266        17.08416         1.54650
C          2.82059        18.51760         1.71280
C          4.73052         2.04953         2.25587
C          4.71892         3.49081         2.25604
C          5.80853         1.35969         1.67447
C          5.79513         4.18423         1.65546
C          4.67649         6.38606         2.38123
C          4.56722         7.82775         2.09461
C          5.87207         5.65370         1.78111
C          5.58397         8.48923         1.43970
C          4.17040        10.59385         1.42868
C          3.92909        11.96104         0.85726
C          5.54027         9.97262         1.36777
C          5.14487        12.72121         0.45810
C          3.81180        14.90462         0.75749
C          3.85028        16.41336         0.85997
C          5.12041        14.18795         0.65456
C          5.14319        17.13745         0.73699
C          3.92616        19.22552         1.34632
C          5.14896        18.58835         0.88462
C          6.86160         2.04963         1.03458
C          6.84912         3.49150         1.00498
C          7.94317         1.35513         0.46098
C          7.91370         4.18834         0.35092
C          6.78085         6.41476         0.91065
C          6.69551         7.79256         0.79537
C          7.93510         5.66623         0.36737
C          7.62771         8.53582        -0.08007
C          6.58718        10.68845         0.58024
C          6.34228        12.10630         0.19780
C          7.59635         9.89837        -0.16122
C          7.50331        12.84671        -0.29397
C          6.35948        14.98085         0.39459
C          6.27227        16.46258         0.36113
C          7.52231        14.29967        -0.23072
C          7.54535        17.17507         0.17815
C          6.28110        19.32444         0.60988
C          7.55773        18.67546         0.29033
C          8.96038         2.03311        -0.25312
C          8.90357         3.48488        -0.36011
C         10.01508         1.30246        -0.81128
C          9.88266         4.18665        -1.15388
C          8.89438         6.38865        -0.52868
C          8.43883         7.72606        -1.10276
C          9.87097         5.57040        -1.28171
C          9.60315         8.49165        -1.76482
C          8.34175        10.68716        -1.22498
C          8.54695        12.14384        -0.85943
C          9.61927         9.99863        -1.74639
C          9.66999        12.85578        -1.49966
C          8.56931        15.02462        -0.74130
C          8.54683        16.50548        -0.70832
C          9.68716        14.36364        -1.45037
C          9.72470        17.29487        -1.17702
C          8.71949        19.39787        -0.25909
C          9.82569        18.72689        -0.75137
C         10.98354         1.92796        -1.69801
C         10.87482         3.40568        -1.93893
C         12.26898         1.25079        -1.92204
C         12.10944         4.11526        -2.51976
C         10.98521         6.27910        -1.87268
C         10.88708         7.75602        -2.07798
C         12.13009         5.60516        -2.22084
C         12.14361         8.56216        -2.26739
C         10.93216        10.73376        -1.81026
C         10.95599        12.14348        -1.68025
C         12.14626        10.03854        -2.03394
C         12.16282        12.88818        -1.76677
C         10.99047        15.06774        -1.56489
C         10.96297        16.55102        -1.61224
C         12.17755        14.36749        -1.69553
C         12.27458        17.29107        -1.58019
C         11.08888        19.37592        -0.82712
C         12.27994        18.68892        -1.08948
C         13.45713         1.96585        -2.00088
C         13.40688         3.45627        -2.04220
C         14.71936         1.33270        -1.99286
C         14.68945         4.20306        -2.22950
C         13.36370         6.35485        -2.57867
C         13.42963         7.78013        -2.04428
C         14.66984         5.61588        -2.73737
C         14.66032         8.52045        -2.50249
C         13.36872        10.75677        -2.09169
C         13.36595        12.16505        -1.96715
C         14.64900        10.03526        -2.41024
C         14.63803        12.91825        -2.04854
C         13.46441        15.09071        -1.67687
C         13.53316        16.51550        -1.53329
C         14.66641        14.35519        -1.69194
C         14.76397        17.21463        -1.44628
C         13.51849        19.28495        -0.83316
C         14.76171        18.63395        -1.03396
C         15.94865         2.05337        -2.00486
C         15.97219         3.47185        -2.18313
C         17.16920         1.37198        -1.79533
C         17.19205         4.18880        -2.14330
C         16.01880         6.35087        -2.87690
C         15.92956         7.79401        -2.41307
C         17.23007         5.61451        -2.32272
C         17.15125         8.56798        -2.47244
C         15.94127        10.68280        -2.08746
C         15.93268        12.15487        -2.00224
C         17.14308         9.99267        -2.06065
C         17.11132        12.82860        -1.39797
C         15.92439        15.01493        -1.57691
C         15.96989        16.44131        -1.55344
C         17.16439        14.29816        -1.46059
C         17.26373        17.02792        -1.63138
C         15.88231        19.36911        -0.57667
C         17.22315        19.04543        -0.89336
C         18.38297         2.07533        -1.64976
C         18.40643         3.50063        -1.83277
C         19.56629         1.40768        -1.24859
C         19.62521         4.21801        -1.65356
C         18.43315         6.30416        -2.19235
C         18.45350         7.77295        -2.37749
C         19.66409         5.63526        -1.84202
C         19.63795         8.49249        -1.91578
C         18.39737        10.61776        -1.68865
C         18.38396        12.03447        -1.23892
C         19.59473         9.89835        -1.65422
C         19.63921        12.81061        -1.18720
C         18.39555        14.94285        -1.25202
C         18.45515        16.38078        -1.27483
C         19.62854        14.18609        -1.15539
C         19.64459        17.12109        -0.88023
C         18.39555        19.25443        -0.19040
C         19.60553        18.49187        -0.41373
C         20.74295         2.12016        -0.96110
C         20.79357         3.54071        -1.20128
C         21.86201         1.46644        -0.38327
C         21.98409         4.27239        -0.92201
C         20.90664         6.34194        -1.74162
C         20.84310         7.78415        -1.86445
C         22.09537         5.65640        -1.27775
C         22.02013         8.59925        -2.00311
C         20.85056        10.54052        -1.16380
C         20.88575        12.03955        -1.02454
C         22.13084         9.87306        -1.50436
C         22.19643        12.71634        -1.04902
C         20.90685        14.95493        -1.11885
C         20.85910        16.39254        -0.71710
C         22.20016        14.20094        -1.01170
C         22.01811        16.99773        -0.20949
C         20.79831        19.08725         0.04140
C         22.01659        18.39029         0.11924
C         22.97181         2.19370         0.06810
C         23.04512         3.61732        -0.20826
C         24.01890         1.54578         0.77815
C         24.11676         4.36611         0.30660
C         23.36923         6.29699        -0.98849
C         23.76651         7.53622        -1.55862
C         24.30974         5.71857        -0.08434
C         24.76730         8.37124        -1.05668
C         23.43069        10.58894        -1.46099
C         23.37592        12.02899        -1.07442
C         24.78100         9.82030        -1.38384
C         24.60096        12.69596        -0.56813
C         23.39453        14.83993        -0.40658
C         23.22107        16.20826         0.12998
C         24.55559        14.14971        -0.24521
C         24.45448        16.92932         0.61988
C         23.22823        19.06979         0.46754
C         24.44345        18.40366         0.61870
C         25.06745         2.26632         1.37335
C         25.03589         3.73864         1.26802
C         26.12324         1.65375         2.06810
C         26.27761         4.51657         1.68395
C         25.49964         6.45654         0.30219
C         25.70355         7.79842        -0.14590
C         26.50663         5.85032         1.10442
C         26.89678         8.51890         0.21074
C         26.09949        10.56205        -1.13151
C         25.90760        11.97511        -0.56872
C         27.08575         9.85991        -0.21414
C         27.18120        12.80032        -0.54143
C         25.72346        14.71661         0.56042
C         25.75387        16.23570         0.61060
C         27.05662        14.12817         0.15775
C         26.90385        16.91418         0.95541
C         25.67908        19.06862         0.78479
C         26.89515        18.39588         1.03309
C         27.28160         2.37046         2.47944
C         27.42082         3.75498         2.19747
C         28.38324         1.68539         3.08780
C         28.64207         4.43206         2.43064
C         27.73114         6.50639         1.37697
C         27.92082         7.85816         0.95510
C         28.79412         5.81656         2.07343
C         29.14906         8.53655         1.24684
C         28.25610        10.57178         0.13491
C         28.34699        11.98999        -0.01983
C         29.33659         9.88293         0.81580
C         29.52134        12.69121         0.32274
C         28.22773        14.79707         0.44876
C         28.14858        16.14229         1.00847
C         29.50082        14.09276         0.45318
C         29.25725        16.62808         1.64588
C         28.04565        19.22545         1.19523
C         29.25062        18.79566         1.79670
C         29.55304         2.34467         3.37334
C         29.71879         3.72476         3.04523
C         30.92231         4.41862         3.32348
C         30.01545         6.47510         2.34993
C         30.19449         7.86307         1.94950
C         31.06039         5.75108         2.98995
C         31.38481         8.56478         2.20976
C         30.56833        10.54065         1.04953
C         30.80505        11.89119         0.39413
C         31.57229         9.86992         1.75427
C         31.97275        12.68321         0.93000
C         30.75588        14.82101         0.74390
C         30.63587        16.22406         1.36991
C         31.97557        14.02391         0.98668
C         31.70968        17.02229         2.01981
C         30.56399        19.24335         1.70813
C         31.65965        18.38938         2.10333
O         11.39068         8.11684        -3.41555
O         10.26972         2.51725        -2.94460
O          9.27156        13.65551        -2.67505
O         23.51627        16.29747         1.58571
O         25.12333        11.95038         0.63927
O         25.08647         4.44068         2.55328
O          6.64350        10.61430         2.06757
O         17.99601         8.28969        -3.66435
O          6.04300        14.51804         1.76842
O         14.56279         9.34493        -3.71116
O          3.80655         9.60141         3.65853
O         30.90197        16.02357        -0.07604
O         17.47265        12.26945        -0.09313
O         13.85008         5.97099        -3.89654
O          8.06163        17.76921         1.40619
O         21.76114        14.75239        -2.31663
O         29.09236        17.63320         2.59369
O          3.67152        10.74217         0.05610
O         17.35705        18.33123        -2.10535
O          5.87392         6.08151         3.18507
O          3.47728        15.73391        -0.40055
O          9.18448         6.31289         0.89711
O         20.77411        11.13811         0.16646
O         15.45236        12.71124        -3.27071
O         24.24799        10.28186        -2.65856
O          8.57824        17.07615        -2.06795
O         11.53970        17.10316        -2.84122
O          9.22818         9.25210        -2.94823
O         14.00110         4.12379        -0.88783
O         23.07478         7.98509        -2.68781
O         27.49910        13.13766        -1.93214
H         27.55205        12.27497        -2.41870
O         26.76283        10.64354        -2.42449
H         26.05210        10.62659        -3.10927
O          7.50973         7.38587        -2.15698
H          7.50406         8.14551        -2.78594
O         13.60517         7.64440        -0.60201
H         13.14468         6.83427        -0.29264
O         12.07564         3.98248        -3.95286
H         11.31358         3.39042        -4.16730
O          7.39497        10.74511        -2.33288
H          7.82910        11.21458        -3.07787
O         31.16324        11.57676        -0.99372
H         31.18737        12.42159        -1.49140
O         16.28850         6.42074        -4.30466
H         15.45498         6.71368        -4.74203
O          1.89149        12.61509        -0.21983
H          2.11045        11.74169        -0.61797
O         25.49339        14.30215         1.94712
H         24.68575        14.78636         2.24459
H          1.74944         1.45073         3.85481
H          1.65946         3.90821         3.82210
H          3.68304         0.23277         2.85359
H          1.41278         5.78258         3.42105
H          1.36561         8.20686         3.50548
H          1.15482        10.25858         3.21127
H          0.69263        12.38721         2.21602
H          0.72865        14.39205         2.23126
H          0.81001        16.83370         2.45954
H          1.94694        19.04353         2.12605
H          5.82386         0.26014         1.70012
H          3.93537        20.31935         1.46282
H          7.97972         0.25827         0.53271
H          6.24002        20.42377         0.64200
H         10.09912         0.22569        -0.60224
H          8.80131        20.47621        -0.05131
H         12.29721         0.15202        -1.87094
H         11.15340        20.42364        -0.49684
H         14.75783         0.23693        -1.90187
H         13.53054        20.31668        -0.45122
H         17.15922         0.28147        -1.65163
H         15.68520        20.24168         0.06504
H         19.53918         0.32078        -1.08131
H         18.40460        19.97942         0.63698
H         21.81205         0.38330        -0.19813
H         20.77059        20.13835         0.36423
H         23.98102         0.45247         0.89578
H         23.20117        20.16579         0.56024
H         26.10184         0.56321         2.21349
H         25.68123        20.16937         0.78390
H         28.27649         0.61678         3.32375
H         27.96663        20.26882         0.85162
H         30.38779         1.81080         3.85028
H         31.75237         3.88336         3.80655
H         32.01144         6.25082         3.21607
H         32.20515         8.08506         2.75924
H         32.53500        10.36066         1.95146
H         32.91339        12.14359         1.11535
H         32.89280        14.56684         1.26011
H         32.65973        16.52045         2.25939
H         30.79582        20.23520         1.29442
H         32.59234        18.90032         2.39732
