         621
 CSIRO Nanostructure Databank - Neutral Graphene Oxide Data Set
C          5.72586        31.79547        -0.00389
C          5.73740        33.16845        -0.03229
C          8.21177        27.48615        -0.00560
C          8.19008        28.89577         0.12932
C          6.96359        29.64375         0.01121
C          8.10855        31.70739         0.73200
C          6.90751        31.00725         0.23045
C          8.10864        33.24465         0.73231
C          6.92732        33.94562         0.19508
C          8.21660        36.05113         0.12156
C          7.01718        35.29576        -0.10711
C          8.28760        37.42833        -0.17827
C         10.62507        23.09158        -0.08414
C         10.62752        24.60807        -0.12237
C          9.46821        25.29906         0.03917
C         10.63494        27.47893         0.11117
C          9.41603        26.76022         0.02133
C         10.62784        28.86067         0.30541
C          9.41602        29.59702         0.35846
C         10.58497        31.75626         0.75409
C          9.40646        31.01809         0.64572
C         10.61478        33.20297         0.81301
C          9.39803        33.96040         0.74516
C         10.58359        36.13398         0.94814
C          9.38785        35.35823         0.59623
C         10.62170        37.65634         0.77650
C          9.45361        38.21379        -0.01305
C         10.74037        40.29808        -0.40307
C          9.51957        39.55583        -0.40676
C         10.82288        41.67369        -0.58767
C         13.36210        18.93709         0.34536
C         13.31457        20.31855         0.07277
C         12.07574        21.06564         0.17570
C         13.18045        23.18116        -0.33206
C         11.99222        22.42540        -0.03458
C         13.18535        24.57455        -0.44486
C         11.87779        25.34613        -0.57994
C         13.10429        27.52767        -0.44650
C         11.96174        26.74464         0.19273
C         13.11178        28.98773        -0.14585
C         11.93430        29.52241         0.68646
C         13.11881        31.78126         0.28493
C         11.83908        31.02475         0.44749
C         13.08284        33.21678         0.58010
C         11.85696        33.89847         0.75676
C         13.14124        36.09367         0.75715
C         11.89940        35.35542         1.00654
C         13.17004        37.49880         0.50846
C         11.95478        38.18749         0.28990
C         13.34372        40.22814        -0.43708
C         11.99596        39.51412        -0.30735
C         13.32995        41.70736        -0.46432
C         12.06072        42.40212        -0.56373
C         13.27906        44.54288        -0.50269
C         12.07665        43.80062        -0.63153
C         13.28670        45.94593        -0.63172
C         15.87072        14.61304         0.35243
C         15.80438        16.01621         0.14613
C         14.61295        16.77854         0.33899
C         15.71624        18.88303        -0.31670
C         14.55301        18.18811         0.14219
C         15.71888        20.28423        -0.53291
C         14.49057        20.98880        -0.36987
C         15.70209        23.20928        -0.86260
C         14.40608        22.42774        -0.66077
C         15.65528        24.65363        -0.58768
C         14.40928        25.29596        -0.57435
C         15.62240        27.45222        -0.19665
C         14.40058        26.79647        -0.82218
C         15.62713        28.92187         0.08151
C         14.39282        29.71783        -0.04038
C         15.64262        31.80133         0.49054
C         14.42326        31.06962         0.25450
C         15.53778        33.17204         0.80481
C         14.30877        33.87723         0.68353
C         15.69453        36.02338         0.40571
C         14.35058        35.32808         0.51054
C         15.67198        37.46422         0.77935
C         14.42740        38.19284         0.47470
C         15.74541        40.25978         0.23470
C         14.54337        39.56482         0.13292
C         15.82974        41.58182        -0.48174
C         14.53111        42.38196        -0.37040
C         15.70003        44.53101        -0.04149
C         14.53739        43.82623        -0.31010
C         15.63580        45.99002         0.12362
C         14.45855        46.70984        -0.42629
C         15.72080        48.84438        -0.47356
C         14.51200        48.09976        -0.59292
C         15.76218        50.23679        -0.49566
C         18.35932        10.34718         0.63233
C         18.31646        11.72513         0.31386
C         17.11340        12.46108         0.31130
C         18.25203        14.58165        -0.25298
C         17.06569        13.88445         0.12701
C         18.21794        15.98744        -0.41630
C         16.98950        16.68570        -0.28859
C         18.23040        18.89133        -0.82146
C         16.90575        18.10344        -0.64093
C         18.20008        20.35015        -0.62526
C         16.97635        20.99541        -0.71306
C         18.14487        23.14060        -0.15323
C         17.04209        22.49066        -0.96650
C         18.11177        24.62035         0.00390
C         16.89687        25.37411        -0.40501
C         18.18205        27.46561        -0.23229
C         16.92616        26.75527        -0.32942
C         18.23291        28.96044         0.02861
C         16.90059        29.66176        -0.14165
C         18.28334        31.77228         0.13507
C         16.92517        31.16051         0.08294
C         18.56880        32.90275         0.86424
C         16.69436        33.96088         1.16802
C         18.22835        35.92493         0.68720
C         16.89589        35.26525         0.82525
C         18.23857        37.44115         0.65844
C         16.96273        38.17702         0.98675
C         18.28906        40.30798         0.60936
C         16.94590        39.70711         0.98640
C         18.31327        41.70045         0.35179
C         17.09698        42.38181        -0.16189
C         18.22679        44.60660         0.44825
C         17.02560        43.87858        -0.02464
C         18.19489        46.00827         0.55020
C         16.90141        46.74050         0.40180
C         18.28133        48.81445        -0.17612
C         16.98133        48.09779        -0.22601
C         18.31264        50.29076        -0.56543
C         16.97303        50.99681        -0.39861
C         18.18724        53.15404        -0.33373
C         16.96631        52.37785        -0.35154
C         18.18164        54.55629        -0.39514
C         20.88172         6.03264         1.22964
C         20.84447         7.51505         1.28424
C         19.61405         8.27000         1.01941
C         20.81673        10.47729         0.94305
C         19.58078         9.65216         0.87444
C         20.77146        11.81545         0.31826
C         19.56541        12.41506         0.02804
C         20.75327        14.55826        -0.50228
C         19.47925        13.77639        -0.63965
C         20.72103        16.01286        -0.40967
C         19.45034        16.75264        -0.56593
C         20.71200        18.92377        -0.63336
C         19.46395        18.12230        -0.64441
C         20.65627        20.26450         0.08347
C         19.43826        21.07814        -0.31782
C         20.66301        23.15124         0.49205
C         19.43921        22.41985        -0.06252
C         20.69714        24.62750         0.07113
C         19.39653        25.38533         0.33435
C         20.68613        27.55232        -0.13376
C         19.37685        26.79303        -0.21159
C         20.64098        28.91032        -0.84567
C         19.36062        29.65454        -0.73618
C         20.74435        31.82399        -0.47370
C         19.41506        31.17464        -0.60278
C         20.79515        33.18530        -0.01605
C         19.64290        33.79174         0.56919
C         20.72679        35.97580         0.77595
C         19.54693        35.21679         0.77757
C         20.70951        37.41816         0.86368
C         19.52145        38.15016         0.83407
C         20.74522        40.31644         0.76769
C         19.49983        39.59706         0.78493
C         20.72938        41.74142         0.74998
C         19.49761        42.44551         0.53959
C         20.62728        44.63847         0.87658
C         19.45222        43.90328         0.59344
C         20.59778        46.05282         0.93699
C         19.38201        46.74382         0.75757
C         20.56458        49.02536         0.97388
C         19.24421        48.26003         0.87095
C         20.59474        50.44859         0.55279
C         19.47097        51.05465         0.03184
C         20.65724        53.20385        -0.22053
C         19.43735        52.47560        -0.17879
C         20.64139        54.60308        -0.45398
C         19.39385        55.30833        -0.43393
C         20.65575        57.42433        -0.43021
C         19.42665        56.71918        -0.38063
C         20.72505        58.80414        -0.03571
C         23.30257         3.22081         0.95615
C         22.11036         3.90300         1.14981
C         23.24956         6.05189         0.46870
C         22.04933         5.32821         1.04730
C         23.42259         7.47466         0.98967
C         22.16412         8.25245         1.25172
C         23.35701        10.34495         0.36926
C         22.20623         9.73820         1.03320
C         23.38956        11.78598         0.19594
C         22.04365        12.55318         0.19478
C         23.21948        14.58145        -0.58485
C         22.00368        13.92092        -0.36891
C         23.26502        16.03538        -0.97030
C         22.02267        16.74276        -0.48581
C         23.19518        18.87985        -0.03246
C         22.00859        18.22348        -0.65541
C         23.20457        20.35257        -0.01743
C         21.96351        21.04159        -0.04220
C         23.20192        23.13969         0.24666
C         21.94302        22.42166         0.14284
C         23.18308        24.68320         0.08763
C         21.85964        25.30844        -0.14431
C         23.15622        27.48766        -0.55427
C         21.85733        26.71498        -0.72627
C         23.17967        28.89081        -0.60095
C         21.94450        29.66187        -0.88324
C         23.20211        31.79451        -0.45976
C         21.94474        31.12603        -0.65661
C         23.22425        33.21577        -0.25592
C         22.01267        33.89413        -0.00070
C         23.31998        35.97621         0.61252
C         22.01635        35.24186         0.61864
C         23.30766        37.44446         0.91253
C         21.97589        38.16700         1.04748
C         23.21969        40.32645         0.91733
C         21.98891        39.63067         0.87870
C         23.18916        41.76009         1.00877
C         21.95283        42.43863         0.96241
C         23.17364        44.63092         1.33751
C         21.87244        43.89356         1.19938
C         23.19104        46.09374         1.03898
C         21.88668        46.81359         0.93399
C         23.17586        49.04030         1.15551
C         21.85734        48.29586         1.16837
C         23.19736        50.51858         0.84419
C         21.86273        51.21917         0.63298
C         23.11908        53.17241        -0.33756
C         21.89349        52.53984        -0.01280
C         23.08373        54.52792        -0.76645
C         21.87253        55.28602        -0.66511
C         23.08821        57.46081        -0.96767
C         21.85556        56.70908        -0.72634
C         23.15687        58.89480        -0.48114
C         21.93748        59.47543         0.11849
C         23.33097        61.29781         0.97495
C         22.07259        60.72353         0.78256
C         24.50212         3.88141         0.62116
C         25.74699         5.95935         0.19616
C         24.55362         5.27906         0.47715
C         25.81627         7.37529         0.06509
C         24.63594         8.17220         0.49124
C         25.82867        10.25257        -0.52768
C         24.53094         9.56390        -0.03675
C         25.74347        11.73769        -0.71419
C         24.55347        12.40599        -0.47115
C         25.76740        14.62212        -0.92153
C         24.45390        13.82563        -0.80652
C         25.74495        16.05448        -0.57040
C         24.54202        16.71483        -0.47466
C         25.75968        18.83034         0.39302
C         24.46526        18.09160         0.07656
C         25.70065        20.32718         0.11961
C         24.45884        21.02964         0.01915
C         25.67140        23.16630        -0.20277
C         24.46916        22.45129        -0.00039
C         25.66378        24.62069        -0.40018
C         24.42308        25.34614        -0.32299
C         25.60728        27.49395        -0.49033
C         24.38456        26.76695        -0.48990
C         25.61469        28.89083        -0.40299
C         24.39950        29.61909        -0.45997
C         25.67352        31.76785        -0.29617
C         24.42165        31.05986        -0.41819
C         25.66730        33.21503        -0.31184
C         24.48198        33.92238        -0.24306
C         25.73850        36.15638        -0.02542
C         24.42799        35.44056        -0.29154
C         25.72159        37.50504         0.28821
C         24.51513        38.22605         0.62330
C         25.73917        40.34917         0.90471
C         24.49449        39.61921         0.81710
C         25.71548        41.78215         1.10543
C         24.44118        42.49831         1.13077
C         25.67628        44.65814         1.38145
C         24.43442        43.87673         1.23043
C         25.65133        46.11287         1.09981
C         24.48812        46.81091         1.14483
C         25.73892        49.04454         0.91444
C         24.46530        48.29467         1.16610
C         25.68776        50.40465         0.32940
C         24.42716        51.12147         0.24589
C         25.55792        52.97302        -0.96017
C         24.35814        52.40356        -0.30418
C         25.59161        54.43161        -1.31094
C         24.30316        55.19870        -1.25841
C         25.65797        57.36687        -0.92981
C         24.35900        56.71337        -1.24172
C         25.64820        58.70988        -0.41696
C         24.48930        59.43437        -0.12644
C         24.51504        60.66988         0.56643
C         27.00577         8.07280        -0.11071
C         28.30663        10.11273         0.14520
C         27.09645         9.51002        -0.19617
C         28.65428        11.46395        -0.23869
C         26.90989        12.51035        -1.07564
C         28.30147        14.58773        -0.68405
C         27.01430        13.87322        -0.83513
C         28.24933        16.05221        -0.43220
C         27.02040        16.70791        -0.36049
C         28.24582        18.94182        -0.20104
C         26.96420        18.18081        -0.26587
C         28.19631        20.33796         0.40990
C         26.89618        21.04647         0.08657
C         28.13300        23.07533        -0.64566
C         26.88363        22.43637        -0.20209
C         28.11105        24.55796        -0.99906
C         26.85316        25.29047        -0.73068
C         28.14787        27.52029        -0.87338
C         26.85038        26.76031        -0.80817
C         28.18306        28.88456        -0.26175
C         26.87692        29.61176        -0.12346
C         28.16956        31.76545        -0.10553
C         26.89640        31.08066        -0.17067
C         28.20369        33.15086        -0.17429
C         26.96720        33.91723        -0.41650
C         28.27774        36.04617         0.14656
C         27.00248        35.43196        -0.30975
C         28.28598        37.52575         0.27198
C         26.97993        38.28406         0.29367
C         28.21960        40.29096         1.13567
C         26.98013        39.66757         0.81928
C         28.17352        41.72975         1.43525
C         26.91874        42.46213         1.22907
C         28.24053        44.63625         1.01406
C         26.98883        43.92804         1.40591
C         28.19595        46.02083         0.68456
C         26.88683        46.74973         0.52008
C         28.19010        48.88883         0.20134
C         26.99993        48.24009         0.77284
C         28.14995        50.26342        -0.07476
C         26.89467        50.97336        -0.08620
C         28.15022        53.06054        -0.80443
C         26.88589        52.27308        -0.78375
C         28.13403        54.43654        -0.89763
C         26.91040        55.19725        -1.21845
C         26.83516        56.63955        -0.93566
C         29.42004        12.42363         0.37137
C         30.62426        14.66312         0.42632
C         29.55582        13.81024        -0.13555
C         30.65682        16.02023         0.28322
C         29.48074        16.77520        -0.13703
C         30.68730        18.93725         0.25065
C         29.49284        18.17119        -0.04223
C         30.67109        20.32972         0.18312
C         29.44623        21.08334         0.02514
C         30.67699        23.09961        -0.73035
C         29.41882        22.39680        -0.37325
C         30.70220        24.57464        -0.81859
C         29.43476        25.29062        -1.08412
C         30.70153        27.49093        -0.59645
C         29.45961        26.79786        -0.99733
C         30.69250        28.88234        -0.32208
C         29.45739        29.63777        -0.27456
C         30.67715        31.72480         0.16562
C         29.43337        31.01134        -0.08121
C         30.67276        33.10757         0.29805
C         29.51278        33.90184        -0.24678
C         30.60476        35.92628         0.91149
C         29.41708        35.30192         0.33207
C         30.37691        37.26457         1.43401
C         29.42590        38.14594         0.96279
C         30.71478        40.27146         1.36274
C         29.46052        39.57909         1.21504
C         30.75735        41.74662         1.38533
C         29.48174        42.52558         1.46130
C         30.63809        44.52661         0.43957
C         29.45681        43.92537         0.99240
C         30.49190        45.86186        -0.26137
C         29.34207        46.69681         0.23242
C         30.56561        48.77344        -0.42050
C         29.35256        48.10239        -0.01656
C         30.56372        50.15172        -0.59558
C         29.36886        50.93338        -0.47689
C         29.36853        52.31551        -0.69643
C         31.88949        16.75770         0.78710
C         33.14266        18.90383         0.41956
C         31.94312        18.23382         0.45654
C         33.21266        20.33396         0.24776
C         31.93115        21.11904         0.41079
C         33.19435        23.18670        -0.32917
C         31.96118        22.38943        -0.40725
C         33.14978        24.54105        -0.60116
C         31.89969        25.27917        -0.75249
C         33.12885        27.45684        -0.47388
C         31.91650        26.74976        -0.64525
C         33.14919        28.84447        -0.15455
C         31.92001        29.56787        -0.06625
C         33.15024        31.62783         0.44816
C         31.91898        30.96933         0.23405
C         33.16451        33.03829         0.89760
C         31.84380        33.81090         0.83265
C         33.14077        35.93600         1.52441
C         31.83768        35.29293         0.97697
C         33.22801        37.44344         1.25654
C         32.17377        38.26699         1.65599
C         33.15032        40.27696         0.71497
C         31.99388        39.62527         1.28220
C         33.13539        41.65863         0.40934
C         32.00436        42.47446         0.87382
C         33.00872        44.50280        -0.23509
C         31.85375        43.85416         0.34774
C         32.97972        45.84291        -0.55099
C         31.78021        46.62521        -0.41881
C         31.77463        47.98943        -0.56834
C         34.38864        21.02784         0.07725
C         35.64561        23.14352        -0.22153
C         34.43791        22.46329        -0.13452
C         35.69267        24.54756        -0.49605
C         34.42433        25.24409        -0.78704
C         35.66662        27.44200        -0.42502
C         34.40715        26.77054        -0.72473
C         35.65877        28.81715        -0.09642
C         34.39476        29.53615         0.04730
C         35.63610        31.63435         0.62471
C         34.37452        30.91022         0.35078
C         35.66399        33.11213         0.59420
C         34.42676        33.83367         0.84689
C         35.68375        35.94858         1.02026
C         34.39861        35.20192         1.02589
C         35.66477        37.43242         0.80688
C         34.36867        38.11496         0.75539
C         35.45838        40.13663        -0.19006
C         34.33112        39.50460         0.46834
C         35.35588        41.51426        -0.56083
C         34.24963        42.27384        -0.22125
C         34.33047        43.77705        -0.35175
C         36.87297        25.27300        -0.52683
C         38.10301        27.42524        -0.53131
C         36.88637        26.71162        -0.53035
C         38.11247        28.81986        -0.35384
C         36.89533        29.48995        -0.03784
C         38.13731        31.67640         0.00740
C         36.94815        30.89686         0.37312
C         38.09739        33.06540         0.05868
C         36.88095        33.76137         0.42029
C         38.08044        35.95916        -0.00480
C         36.96261        35.21771         0.64246
C         38.00786        37.30227        -0.26888
C         36.87105        38.13227         0.14762
C         36.61760        39.41858        -0.48215
C         39.32334        29.58301        -0.48822
C         40.51038        31.74120        -0.69241
C         39.32721        30.96805        -0.39786
C         40.47937        33.10228        -0.66501
C         39.27916        33.82403        -0.31491
C         39.23742        35.20331        -0.39728
O         26.12537        52.16488        -2.03964
O         27.37400        27.37272        -2.08864
O         36.42833        31.09927         1.73712
O         34.44630        26.04971        -2.00720
O         12.17752        29.17453         2.03261
O         19.09382        30.49606        -1.86301
O         18.18505        36.69575        -0.59497
O         23.55136        18.21220         1.23148
O         28.04673        11.80540        -1.47027
O         21.29622        29.13420        -2.12272
O         28.79093        42.19767         2.69858
O         22.90303        12.53714         1.37131
O         28.00569        23.54041        -2.04261
O         12.70002        28.48402        -1.46046
O         21.50418        18.83515        -1.87438
O         27.54995        28.98823         1.05929
O         22.58230        51.27454         1.92564
O         12.76649        39.55373        -1.57956
O         22.74544        37.74022         2.22570
O         17.68616        33.28603         1.87589
O         21.09835        48.74719         2.32716
O         26.37463        44.38950         2.66245
O         21.60352        10.45074         2.15388
O         17.97551        47.98424        -1.33364
O         24.45206         7.90020         1.93638
O         16.74114        30.53768        -1.26044
O         29.35603        14.08703        -1.54684
O         31.43280        22.34645        -1.76050
O         26.33528        54.73907        -2.50489
O         22.96010        58.58964        -1.89851
O         27.78338        38.17910        -0.94176
O         32.35868        33.22576         2.10897
O          7.87015        32.47066         1.95493
O         11.77417        25.66795        -1.91928
O         36.65516        35.55935         2.03488
O         14.89141        22.80465        -2.01255
O         29.56615        26.12040        -2.28616
O         27.05600        34.78976        -1.64554
O         22.87547         6.22483        -0.89154
O         21.52557        16.39800         0.82015
O         27.50500        18.83887        -1.45673
O         36.63343        38.15070         1.60794
O         25.02553        14.21251        -2.12648
O         12.29008        31.42076        -0.88767
O         17.38837        43.23542        -1.32612
O         15.02370        35.68329        -0.81448
O         22.62772        46.45120        -0.29367
O         26.64494        48.81930         2.05756
O         20.45161        19.96819         1.44629
O         31.74827        42.31366         2.30673
O         17.45560        18.43048        -1.96177
O         22.39824        44.28576         2.53147
O         11.16294        35.74718         2.23744
O         16.25049        37.63654         2.15379
O         17.73088        23.70841         1.12116
O         23.26946        24.05513         1.40881
O         15.97328        46.52057         1.48998
O         15.50623        27.95230         1.17506
O         24.92727         9.57991        -1.45389
O         23.85684        48.76974         2.42415
O         20.89566        27.84075         1.21779
O         31.19616        37.69489         2.48177
O         21.56943         7.92535         2.53448
O         22.96764        35.19922         1.77588
O         24.17335        55.98517        -2.48901
O         26.61870        46.65616        -0.93413
H         27.47918        46.60880        -1.40669
O         12.27030        26.56000         1.56180
H         12.27048        27.49436         1.98061
O         23.23796        16.16940        -2.41677
H         23.94888        15.58142        -2.77473
O         33.12121        35.75543         2.95566
H         32.95255        34.79727         3.12380
O         30.08200        45.50380        -1.64888
H         30.87472        45.13491        -2.09472
O         20.56633        23.13234         1.94334
H         21.41234        23.49852         2.29066
O         29.79185        34.11039        -1.67656
H         28.95552        34.46223        -2.07130
O         18.56428        29.11120         1.43024
H         19.39114        28.56003         1.61383
O         18.54389        48.51960         2.11590
H         19.20525        48.44473         2.84227
O         17.47508        22.64411        -2.34592
H         16.68649        22.47644        -2.91141
O         33.07721        16.08846         0.35714
H         33.06504        16.03824        -0.62067
O         24.02735        35.80945        -1.64581
H         24.77265        35.57953        -2.24367
O         14.56702        26.92381        -2.25137
H         13.70636        26.66311        -2.65643
O         19.40199        25.57709         1.76943
H         19.25014        24.68817         2.17367
O         31.88724        21.58071         1.80198
H         31.76468        20.79592         2.37681
O         35.00001        44.14823        -1.56371
H         34.47640        43.81872        -2.32200
O         21.62994        26.51167        -2.13682
H         21.63057        27.40007        -2.57456
O         19.29907        13.49938        -2.07904
H         20.11874        13.08023        -2.41710
O         16.75848        40.14853         2.36739
H         16.33607        39.39364         2.84577
O         25.98962        18.67299         1.82616
H         25.09401        18.66297         2.24808
O         15.92881        41.21802        -1.89312
H         16.32032        41.99502        -2.35650
O          9.79524        22.62152         0.98353
H         10.13862        22.98786         1.82421
O         28.26136        20.19401         1.85504
H         27.45262        19.69594         2.14192
O         18.59740        50.35350        -1.99375
H         18.24815        49.51614        -2.38430
O         10.49152        38.24087         2.11119
H         10.84840        37.57103         2.74327
H          4.79387        31.26346        -0.24726
H          4.81558        33.70693        -0.29805
H          7.25769        26.94953        -0.11908
H          6.05273        29.11023        -0.30240
H          6.14103        35.81762        -0.52068
H          7.40263        37.90632        -0.62646
H         10.13943        22.73511        -1.03629
H          8.53325        24.75254         0.24176
H          8.60671        40.05026        -0.77441
H          9.89213        42.25370        -0.68226
H         12.45458        18.42254         0.69379
H         11.15733        20.50750         0.41071
H         11.12950        44.34558        -0.75952
H         12.35589        46.45962        -0.91591
H         14.96713        14.07319         0.67156
H         13.70149        16.25459         0.66442
H         13.58639        48.64146        -0.84024
H         14.81304        50.79056        -0.57014
H         17.41312         9.79768         0.74687
H         16.17745        11.93876         0.56134
H         16.00642        52.91719        -0.35404
H         17.22171        55.09263        -0.43215
H         19.96548         5.49723         1.53130
H         18.67972         7.70358         0.88996
H         18.49054        57.27890        -0.23783
H         19.79912        59.28673         0.31208
H         23.31164         2.12479         1.04157
H         21.18853         3.34359         1.37049
H         23.39971        62.25801         1.50545
H         21.17559        61.22653         1.17097
H         25.40708         3.28501         0.42871
H         26.68691         5.38514         0.14232
H         26.61937        59.15191        -0.14490
H         25.48494        61.12726         0.80907
H         27.94694         7.50488        -0.17961
H         29.07625         9.48456         0.62167
H         29.08263        54.99095        -0.82675
H         27.76044        57.13772        -0.60636
H         29.89068        12.20446         1.34063
H         31.48744        14.16166         0.89157
H         31.49794        50.66108        -0.87645
H         30.32196        52.83697        -0.86886
H         31.88326        16.68472         1.91414
H         34.07815        18.32874         0.49996
H         33.90865        46.33753        -0.87172
H         32.71651        48.51736        -0.78324
H         35.34395        20.47973         0.07055
H         36.59207        22.59994        -0.08221
H         36.22246        42.00697        -1.02508
H         34.98898        44.14108         0.48605
H         37.83358        24.74822        -0.41525
H         39.05029        26.88871        -0.68577
H         38.83171        37.79005        -0.81181
H         37.37890        39.85134        -1.14773
H         40.25099        29.05412        -0.75234
H         41.43228        31.20764        -0.96499
H         41.37871        33.68361        -0.91534
H         40.11772        35.75240        -0.76340
