         344
 CSIRO Nanostructure Databank - Neutral Graphene Oxide Data Set
C          1.24935         3.42265        -0.60465
C          0.06925         4.12012        -0.72603
C          1.20322         6.26763        -0.39652
C          0.03515         5.53029        -0.60687
C          1.19066         7.73140        -0.27090
C         -0.01135         8.46809        -0.15801
C          1.19588        10.59628        -0.08608
C         -0.01124         9.85334        -0.08253
C          1.20663        12.04796        -0.00938
C          0.00592        12.83182        -0.19705
C          1.20315        14.93962         0.42568
C          0.00074        14.18548        -0.08504
C          1.27870        16.38236        -0.02326
C          0.09328        17.18839         0.09086
C          1.27382        19.08794        -0.98025
C          0.07315        18.49231        -0.28786
C          1.29425        20.58843        -0.90070
C          0.23343        21.30501        -1.40996
C          1.36887        23.45246        -1.01526
C          0.20814        22.71208        -1.37936
C          1.39937        24.91651        -1.15702
C          0.26299        25.64093        -1.55965
C          1.43429        27.76310        -1.34431
C          0.27235        27.03198        -1.64566
C          1.47821        29.19585        -1.46497
C          3.67555         3.42385        -0.17564
C          2.48142         4.11475        -0.34341
C          3.67573         6.27359        -0.22848
C          2.44784         5.56673        -0.28637
C          3.71033         7.74555        -0.55943
C          2.40797         8.45334        -0.25490
C          3.71019        10.56198        -0.11614
C          2.41045         9.85479        -0.15838
C          3.71456        12.03627         0.07717
C          2.42220        12.75814         0.14415
C          3.72067        14.85617         0.09177
C          2.47122        14.16298         0.19185
C          3.73561        16.23868        -0.18116
C          2.51322        16.99246        -0.29804
C          3.73424        19.15929        -0.41664
C          2.55884        18.42629        -0.53871
C          3.73213        20.58765        -0.20563
C          2.38977        21.30443        -0.16012
C          3.83805        23.43624        -0.48867
C          2.49117        22.76527        -0.55261
C          3.76801        24.94886        -0.38488
C          2.58651        25.63280        -0.82648
C          3.80856        27.78104        -0.68833
C          2.60510        27.05848        -0.93063
C          3.84881        29.20496        -0.87874
C          2.63459        29.88784        -1.24508
C          6.21280         3.44743         0.16930
C          4.88707         4.14536         0.33510
C          6.12122         6.29645        -0.11812
C          4.88735         5.59134        -0.09567
C          6.13781         7.67223         0.09708
C          4.92792         8.42494         0.03845
C          6.18008        10.52279         0.41790
C          4.93623         9.80157         0.21476
C          6.19472        11.97142         0.57798
C          4.87751        12.69250         0.78670
C          6.14591        14.79797         0.53212
C          4.95541        14.14656         0.38806
C          6.27221        16.18473         0.07751
C          5.02085        16.93102        -0.35153
C          6.25205        19.19611         0.04419
C          5.03260        18.44076        -0.39624
C          6.14720        20.64692         0.34329
C          4.87626        21.28437         0.19387
C          6.08788        23.49799         0.72264
C          4.74472        22.75529         0.56548
C          6.12752        24.98905         0.44134
C          4.91653        25.66811        -0.07957
C          6.22118        27.78376        -0.19880
C          4.98231        27.08644        -0.29402
C          6.26456        29.19492        -0.44111
C          5.05744        29.88762        -0.73476
C          8.66353         3.43611        -0.04144
C          7.38414         4.10619        -0.06611
C          8.64256         6.29397        -0.16746
C          7.37241         5.55813        -0.50633
C          8.66309         7.63169         0.15703
C          7.39503         8.33684         0.58712
C          8.64562        10.57041         0.37832
C          7.37850         9.83113         0.40222
C          8.65468        11.99579         0.78860
C          7.37220        12.65842         0.78759
C          8.64601        14.82894         1.06651
C          7.31509        14.11036         1.20344
C          8.67097        16.22912         0.94789
C          7.39008        16.95050         0.70398
C          8.64050        19.15957         1.08470
C          7.35020        18.43201         0.72751
C          8.62203        20.60355         0.60847
C          7.33564        21.34979         0.58214
C          8.58941        23.49678         0.72903
C          7.37067        22.77140         0.68220
C          8.61001        24.93355         0.56020
C          7.42485        25.65493         0.29203
C          8.66192        27.77206         0.03155
C          7.44933        27.07317         0.03335
C          8.71400        29.18439        -0.19360
C          7.50740        29.87473        -0.42242
C         11.12176         3.41014        -0.12211
C          9.87273         4.09349        -0.18561
C         11.15852         6.25136        -0.01544
C          9.91541         5.56950        -0.52156
C         11.14310         7.65054         0.22636
C          9.90654         8.33545         0.28461
C         11.16472        10.46858         0.81643
C          9.93152         9.79710         0.38652
C         11.10159        11.86497         1.38998
C          9.83908        12.65184         1.06869
C         11.09557        14.81719         1.26431
C          9.86471        14.10681         1.18688
C         11.09735        16.22147         1.13259
C          9.89360        16.93238         0.96214
C         11.14416        19.17475         0.98653
C          9.90859        18.40676         0.56228
C         11.06384        20.60450         1.44308
C          9.89236        21.34682         0.81439
C         11.05292        23.50852         0.95756
C          9.85167        22.82212         0.87838
C         11.06463        24.92874         0.79015
C          9.86650        25.61042         0.55048
C         11.04568        27.82286         0.83732
C          9.96898        27.03803         0.08396
C         11.16372        29.21693         0.23769
C          9.98206        29.84588        -0.21942
C         13.59077         3.40213        -0.16330
C         12.34733         4.08964        -0.11636
C         13.58821         6.23680         0.24554
C         12.36217         5.54099         0.01871
C         13.57869         7.63927         0.47183
C         12.37389         8.35080         0.46845
C         13.61638        10.50405         0.84487
C         12.35543         9.77808         0.76458
C         13.55933        11.95877         0.94637
C         12.38598        12.62403         1.15809
C         13.63150        14.82067         1.13153
C         12.39443        14.07705         1.58764
C         13.64640        16.30019         1.42032
C         12.37777        17.00916         0.92937
C         13.66786        19.18522         1.52249
C         12.28424        18.40361         1.57643
C         13.54582        20.63076         1.05465
C         12.36770        21.31634         1.16859
C         13.56549        23.49878         0.77943
C         12.34726        22.81732         1.33701
C         13.55391        24.90254         0.64798
C         12.32660        25.63882         0.74263
C         13.55601        27.74640         0.71550
C         12.34772        27.05055         0.75377
C         13.54890        29.22707         1.00588
C         12.37313        29.87955         0.33253
C         16.05681         3.41094        -0.31987
C         14.80640         4.08943        -0.12821
C         16.04508         6.20706         0.10019
C         14.82827         5.51463         0.11376
C         16.10833         7.63238         0.48574
C         14.83525         8.33162         0.95665
C         16.04392        10.57346         0.43120
C         14.82379         9.83515         0.71993
C         16.03641        11.98393         0.46822
C         14.87536        12.68248         1.12422
C         15.99677        14.88740         0.47041
C         14.78770        14.16334         0.83247
C         15.98982        16.31648         0.44523
C         14.83623        17.04217         0.86310
C         15.97128        19.16979         0.45603
C         14.81224        18.43456         0.85739
C         15.96309        20.61592         0.44091
C         14.77467        21.33591         0.71124
C         15.96471        23.46425         0.24083
C         14.75455        22.76115         0.56807
C         15.95823        24.89662         0.11762
C         14.76681        25.60800         0.34935
C         15.91520        27.77303         0.04556
C         14.76012        27.05444         0.38257
C         15.95214        29.21301         0.18285
C         14.83138        29.89973         0.63763
C         18.50686         3.45591        -0.73791
C         17.23097         4.11548        -0.48148
C         18.35483         6.30011        -0.77693
C         17.23314         5.56030        -0.35974
C         18.39232         7.72498        -0.69353
C         17.30316         8.42170         0.03293
C         18.31417        10.61706        -0.50071
C         17.21312         9.89885        -0.04309
C         18.32858        12.04000        -0.39646
C         17.16973        12.72863         0.07199
C         18.34283        14.89312        -0.27683
C         17.16592        14.17675         0.10731
C         18.34564        16.31937        -0.28212
C         17.16132        17.03833         0.07141
C         18.35560        19.18953        -0.23821
C         17.15074        18.46735         0.08635
C         18.37550        20.60527        -0.18024
C         17.17105        21.33013         0.12980
C         18.46320        23.51952         0.09044
C         17.16854        22.74552         0.08949
C         18.33990        24.91144        -0.50637
C         17.14937        25.58975        -0.34888
C         18.31243        27.85132        -0.86432
C         17.04670        27.05483        -0.56794
C         18.38019        29.24110        -0.34845
C         17.20293        29.89767         0.01581
C         19.56186         4.14904        -1.20838
C         20.66866         6.37288        -1.73428
C         19.39504         5.58973        -1.61144
C         20.65453         7.72654        -1.62441
C         19.49257         8.44324        -1.15745
C         20.74790        10.65584        -0.99967
C         19.44286         9.95133        -1.26720
C         20.76123        11.99496        -0.81575
C         19.53740        12.76017        -0.66000
C         20.70494        14.92436        -0.97251
C         19.53699        14.17580        -0.62630
C         20.70093        16.29387        -0.97877
C         19.53236        17.03945        -0.63177
C         20.70885        19.20596        -0.95031
C         19.53513        18.46449        -0.60836
C         20.73438        20.57148        -0.89742
C         19.58815        21.32830        -0.48664
C         20.84551        23.46909        -0.65471
C         19.64130        22.73149        -0.41577
C         20.83376        24.81641        -0.86148
C         19.56924        25.55446        -1.00180
C         20.83945        27.85413        -0.94780
C         19.59243        27.11746        -1.13057
C         20.83661        29.15783        -0.49811
C         19.64453        29.85373        -0.21064
O         17.32582        27.60760        -1.90603
O          6.02176        18.92442        -1.37213
O          9.50928        20.87741        -0.53540
O          5.98678        24.45245         1.83454
O         17.20805         7.91733         1.42687
O          6.85448        17.67637         1.89278
O          9.38950        10.39337        -0.90330
O         19.50512        26.25072        -2.29025
O          3.98289        11.49382        -1.25316
O          5.96011        16.36295        -1.33104
O         18.75641        23.76646         1.52825
H         18.81338        22.88974         1.96558
O          3.88107         7.83326        -2.01186
H          3.98664         8.78186        -2.24070
O         11.93339        18.19092         2.97867
H         11.58325        19.05489         3.31279
O         10.02728         5.62056        -2.00559
H         10.16471         6.56085        -2.25308
O          9.85945        18.32351        -0.89734
H          9.86473        19.25292        -1.23929
O         18.83944         5.55119        -2.98702
H         18.77508         6.48095        -3.29515
O         14.12754        19.30882         2.90602
H         13.57748        19.99120         3.34740
O         15.14346        12.61632         2.56778
H         14.36633        13.02552         3.01775
O         10.86321        20.69294         2.92286
H          9.97153        20.28517         3.09798
O          4.69338         4.19632         1.81405
H          3.79324         4.55322         1.97482
O          4.07814        22.81905         1.84803
H          4.46916        23.59107         2.32985
O          1.95887        21.27149         1.25211
H          2.60513        21.82849         1.75814
O         12.52864        17.17524        -0.49881
H         11.67663        17.53012        -0.85657
O          8.71148        19.21237         2.53046
H          8.11269        18.49468         2.86534
O          1.03391        15.00636         1.90026
H          1.08241        14.08574         2.23665
O          4.58637        12.62985         2.21287
H          5.29137        13.15793         2.66527
O          4.50024        23.16867        -1.76998
H          3.89844        23.45483        -2.48939
O         19.13470        10.19353        -2.69279
H         19.14954        11.16532        -2.82906
O          7.31271         5.51522        -1.97293
H          8.22843         5.31614        -2.29397
O         14.80069         8.16896         2.40658
H         15.72588         8.29898         2.71907
O          1.13815        18.75755        -2.40996
H          1.12870        17.77951        -2.48469
O         12.47614        14.02760         3.06393
H         12.80968        14.92452         3.34664
O         12.44008        22.99820         2.80239
H         11.77345        22.38617         3.19967
O         13.74374        16.36505         2.87781
H         13.73032        17.31743         3.15167
O         10.67669        27.96426         2.22329
H         11.39170        28.49123         2.65173
O          7.37851         8.16839         2.06047
H          6.52027         8.51255         2.38858
O         10.45994        26.97155        -1.29895
H          9.79074        26.49571        -1.83417
O          6.99797        14.10631         2.64689
H          7.76246        13.70463         3.11363
O         13.33577        29.36130         2.47670
H         14.12679        28.98836         2.92183
O         11.01584        11.67565         2.85288
H         11.46418        12.45170         3.27117
H          1.26199         2.32620        -0.68400
H         -0.86988         3.58021        -0.91218
H         -0.93321         6.03919        -0.70644
H         -0.97628         7.94267        -0.14035
H         -0.97449        10.37587        -0.00429
H         -0.91805        12.31994        -0.50329
H         -0.93179        14.74003        -0.26624
H         -0.80356        16.73475         0.53731
H         -0.83300        19.10238        -0.16523
H         -0.60864        20.76862        -1.87116
H         -0.68560        23.22621        -1.75442
H         -0.66718        25.11446        -1.81004
H         -0.63533        27.56428        -1.96422
H          0.56055        29.72548        -1.75988
H          3.68352         2.32490        -0.23547
H          2.66080        30.98108        -1.36136
H          6.24022         2.37692         0.43114
H          5.09074        30.97551        -0.89556
H          8.67101         2.35029         0.14860
H          7.52740        30.95861        -0.61115
H         11.11956         2.31197        -0.04238
H         10.02050        30.90439        -0.51948
H         13.59191         2.30944        -0.29320
H         12.49014        30.88810        -0.09267
H         16.05525         2.31494        -0.41723
H         14.89862        30.98740         0.79184
H         18.58572         2.37803        -0.52961
H         17.25789        30.95369         0.32044
H         20.52282         3.65156        -1.40741
H         21.57391         5.85311        -2.08183
H         21.56615         8.29403        -1.86042
H         21.69701        10.10599        -1.06601
H         21.72569        12.51176        -0.70917
H         21.62348        14.39555        -1.25964
H         21.62422        16.81605        -1.26029
H         21.61851        18.67960        -1.26591
H         21.65866        21.09266        -1.17764
H         21.80920        22.94240        -0.70268
H         21.77238        25.33526        -1.09839
H         21.78821        27.37227        -1.21882
H         21.79510        29.68212        -0.37664
H         19.69677        30.89148         0.14720
