         244
 CSIRO Nanostructure Databank - Neutral Graphene Oxide Data Set
C          1.77062         2.38700         1.47048
C          1.56869         3.70252         0.91854
C          2.77128         1.57812         1.05344
C          2.43316         4.24996        -0.00357
C          1.25143         6.43178        -0.12985
C          1.24174         7.83599        -0.23837
C          2.40992         5.67398        -0.30599
C          2.37498         8.55607        -0.61104
C          1.20286        10.73612        -0.62565
C          1.20147        12.11917        -0.54166
C          2.40468         9.99897        -0.66520
C          2.40539        12.85279        -0.48199
C          1.22855        15.01601        -0.05129
C          1.21972        16.41475         0.16460
C          2.40099        14.29346        -0.31595
C          2.38532        17.15379         0.08545
C          2.45675        18.58033         0.33643
C          3.59115         1.93727        -0.15871
C          3.59335         3.44203        -0.45030
C          4.97691         1.33650        -0.13286
C          4.87896         4.19380        -0.67971
C          3.64171         6.34535        -0.67170
C          3.59063         7.80157        -0.94316
C          4.84660         5.67636        -0.73467
C          4.92391         8.58885        -0.96699
C          3.65246        10.71662        -0.67135
C          3.64650        12.14960        -0.57022
C          4.89193        10.02753        -0.69310
C          4.88513        12.86251        -0.57323
C          3.65478        14.98903        -0.42683
C          3.62902        16.46702        -0.29650
C          4.85426        14.29676        -0.57597
C          4.91759        17.17011         0.01103
C          3.62317        19.22344         0.59496
C          4.91649        18.47104         0.79264
C          6.13399         2.03831        -0.23879
C          6.13693         3.54364        -0.13739
C          7.41852         1.36973        -0.29537
C          7.42239         4.18600        -0.59420
C          6.12315         6.39565        -0.96407
C          6.17057         7.85556        -0.75618
C          7.42510         5.64786        -0.86280
C          7.36060         8.53300        -0.48185
C          6.12775        10.70757        -0.52263
C          6.12314        12.13952        -0.51692
C          7.36329         9.98010        -0.40988
C          7.37964        12.81298        -0.46240
C          6.11927        15.10017        -0.81546
C          6.14022        16.29634         0.18025
C          7.41306        14.28251        -0.67825
C          7.40069        17.13286         0.10449
C          6.17414        19.24472         0.48602
C          7.37043        18.58364         0.24904
C          8.60028         2.04187        -0.43432
C          8.59550         3.49514        -0.60206
C          9.88222         1.22750        -0.42104
C          9.89152         4.25701        -0.82658
C          8.64539         6.40269        -0.48777
C          8.60706         7.81085        -0.31376
C          9.83801         5.69137        -0.33087
C          9.81707         8.50343         0.00149
C          8.59163        10.67177        -0.22663
C          8.57573        12.10653        -0.28686
C          9.81842         9.94271         0.02043
C          9.85438        12.83793        -0.13195
C          8.65033        15.02669        -0.29162
C          8.59382        16.47293         0.00629
C          9.83889        14.28907         0.15839
C          9.85638        17.16047         0.09758
C          8.62117        19.28413         0.11268
C          9.84723        18.61494         0.03969
C         11.14505         2.04668        -0.76506
C         11.02409         3.46222        -0.16345
C         12.39036         1.35797        -0.28575
C         12.31467         4.23429        -0.03319
C         11.03313         6.35906         0.06078
C         11.02258         7.77848         0.24141
C         12.24852         5.61575         0.21892
C         12.24808         8.47144         0.63401
C         11.03907        10.60619         0.31160
C         11.10043        12.08209         0.18806
C         12.22002         9.92479         0.67495
C         12.13059        12.76086         1.06522
C         10.97358        14.99337         0.48406
C         11.01761        16.43173         0.28638
C         12.19539        14.28342         0.94783
C         12.34423        17.05782        -0.04950
C         11.10267        19.28279        -0.02494
C         12.31701        18.57550        -0.05258
C         13.55874         2.07770        -0.05311
C         13.52889         3.52510         0.08568
C         14.79792         1.39193         0.02209
C         14.76180         4.24147         0.30633
C         13.40347         6.25402         0.94361
C         13.40960         7.76038         0.91831
C         14.73322         5.62595         0.58927
C         14.63160         8.39879         1.55743
C         13.42800        10.66389         0.98902
C         13.47067        12.06252         0.99312
C         14.63380         9.93334         1.44120
C         14.70910        12.81259         0.96798
C         13.50387        15.02645         0.99208
C         13.52653        16.55354         0.80026
C         14.74922        14.23639         0.81409
C         14.80030        17.08092         0.18764
C         13.55435        19.21207        -0.16640
C         14.78215        18.47011        -0.19361
C         16.02924         2.08972         0.10971
C         16.00162         3.54026         0.24061
C         17.22739         1.38571         0.11885
C         17.21019         4.26051         0.38638
C         15.94762         6.35695         0.76942
C         15.93554         7.73993         1.10566
C         17.18635         5.64540         0.62496
C         17.22148         8.42400         1.32645
C         15.94429        10.70506         1.42032
C         15.94067        12.10632         0.96178
C         17.24623         9.95766         1.45674
C         17.16721        12.76841         0.71358
C         15.95337        14.89604         0.47489
C         15.96054        16.32209         0.12943
C         17.17105        14.16502         0.41691
C         17.18093        16.94212        -0.32852
C         15.97349        19.08435        -0.58526
C         17.18026        18.34346        -0.66037
C         18.56337         2.03660         0.27195
C         18.48970         3.55282         0.25707
C         19.55839         1.57799        -0.78881
C         19.64223         4.24284         0.08321
C         18.50570         6.28710         0.97958
C         18.48871         7.78721         0.95672
C         19.63019         5.74786         0.09515
C         19.70506         8.49805         0.87705
C         18.48037        10.66976         1.06206
C         18.41034        12.03911         0.78463
C         19.71929         9.94306         0.95543
C         19.65564        12.81766         0.69324
C         18.40532        14.81851         0.00947
C         18.38115        16.21003        -0.41747
C         19.60926        14.14782         0.06608
C         19.59394        16.85024        -0.81783
C         18.37649        18.96935        -1.05708
C         19.58168        18.24934        -1.13678
C         20.69006         2.26682        -0.97503
C         20.95428         3.51853        -0.16782
C         21.96084         4.44988        -0.80841
C         21.00296         6.29534         0.51397
C         20.94891         7.80948         0.62190
C         22.00343         5.74958        -0.48475
C         22.13152         8.52736         0.52494
C         20.95449        10.63607         0.80378
C         20.97793        12.11556         0.83900
C         22.14097         9.92763         0.59861
C         22.19253        12.87339         0.42787
C         20.81787        14.62843        -0.70843
C         20.82480        16.12954        -0.91528
C         22.11684        14.05864        -0.18847
C         21.97057        16.78617        -1.34228
C         20.78972        18.88978        -1.54479
C         21.95630        18.16801        -1.64706
O         10.90650        12.55362        -1.16795
O          6.87333         5.96853        -2.18817
O         15.17552        10.54592         2.66170
O          8.36844        14.68098        -1.72364
O          4.14079         3.62205        -1.80356
O          4.38710        17.25221        -1.31538
O         17.35553         9.13282         2.63520
O         12.75587        14.75727         2.23645
O          4.21271         8.19736        -2.19820
O         20.37392        12.74887         2.01275
O          6.06556         3.86410         1.30005
H          6.81354         3.40667         1.74090
O          4.97109        18.09324         2.22204
H          5.11810        18.91275         2.74038
O         11.61623        12.49018         2.40482
H         12.16224        13.02211         3.02771
O         19.39390         6.22379        -1.25379
H         18.56256         5.81517        -1.57465
O         10.12457         4.38969        -2.26077
H          9.34130         4.83502        -2.65149
O         12.63508        16.60975        -1.40840
H         11.88583        16.87162        -1.98412
O          2.91198         1.31278        -1.28985
H          3.25444         1.76153        -2.09562
O         19.10749         1.61784         1.55727
H         20.01601         2.01366         1.61827
O         21.37024         5.76208         1.81661
H         20.58365         5.88415         2.40710
O         10.03875         0.62180         0.87121
H         10.21815         1.35461         1.50431
O          6.10138        15.70412         1.50481
H          5.85814        16.42383         2.13717
O         21.47494         3.09963         1.13261
H         21.61909         3.94422         1.63832
O         13.44081        17.17562         2.09978
H         12.99228        16.53271         2.69803
O         14.53286         8.10644         2.99438
H         15.05922         8.81260         3.44659
O         20.65205        14.03805        -2.05052
H         19.91462        14.51137        -2.49146
O         11.30987         2.05775        -2.20369
H         10.96062         2.90905        -2.56545
O         13.16227         5.86573         2.36063
H         13.67700         6.50680         2.91424
O         10.59590         3.26215         1.22681
H         11.01737         3.95536         1.78089
O          6.05236        15.58376        -2.16297
H          6.96642        15.54808        -2.53249
O         18.78616         5.89774         2.37379
H         18.11216         6.33267         2.93953
H          1.12031         2.07647         2.30134
H          0.76258         4.31571         1.34527
H          2.92539         0.59148         1.51363
H          0.31277         5.92768         0.13828
H          0.30522         8.36206        -0.00861
H          0.23913        10.21150        -0.66930
H          0.23586        12.64123        -0.52046
H          0.26965        14.48679         0.03141
H          0.27207        16.90825         0.42461
H          1.51286        19.14801         0.32826
H          5.02144         0.23546        -0.13403
H          3.61867        20.30771         0.78746
H          7.42825         0.27150        -0.22618
H          6.16100        20.34287         0.56374
H          9.78932         0.39146        -1.16018
H          8.60979        20.38441         0.12718
H         12.44352         0.26177        -0.37167
H         11.12463        20.38330        -0.03893
H         14.80664         0.29507        -0.06023
H         13.59637        20.30447        -0.29656
H         17.19685         0.28570         0.07876
H         15.97914        20.15010        -0.85735
H         19.36076         0.64653        -1.34114
H         18.36743        20.04034        -1.30789
H         21.45018         1.92977        -1.69710
H         22.68053         4.02936        -1.52842
H         22.74173         6.41697        -0.95434
H         23.08286         7.99800         0.37808
H         23.09455        10.46223         0.49952
H         23.17417        12.49052         0.74674
H         23.04754        14.59983        -0.41269
H         22.91473        16.23739        -1.46005
H         20.76999        19.96257        -1.78427
H         22.88557        18.65590        -1.97213
