         244
 CSIRO Nanostructure Databank - Neutral Graphene Oxide Data Set
C          1.31312         2.04204         0.32394
C          1.28539         3.46069         0.48273
C          2.47216         1.32232         0.39180
C          2.43504         4.20984         0.68354
C          1.27358         6.38808         0.38617
C          1.27949         7.76307         0.26581
C          2.46610         5.65958         0.58942
C          2.48386         8.51018         0.37256
C          1.38735        10.52629        -0.51814
C          1.31146        11.89775        -0.82812
C          2.45749         9.95085         0.15162
C          2.37756        12.75660        -0.52625
C          1.16439        14.94075        -0.84969
C          1.17693        16.37781        -0.98903
C          2.31375        14.19753        -0.78966
C          2.33917        17.10559        -0.85239
C          2.42211        18.54491        -0.82313
C          3.70994         1.95290         0.84664
C          3.68681         3.50942         1.00137
C          5.00349         1.33348         0.58950
C          4.96959         4.22606         0.89731
C          3.69719         6.38376         0.72596
C          3.68274         7.81167         0.64446
C          4.94242         5.65932         0.84865
C          4.93927         8.59351         0.97942
C          3.61934        10.80437         0.63089
C          3.52207        12.25339         0.14489
C          4.94820        10.02393         0.42200
C          4.55282        13.18821         0.49997
C          3.62336        14.88773        -1.09444
C          3.59027        16.34608        -0.62002
C          4.80732        14.25551        -0.38983
C          4.86719        17.09454        -0.41428
C          3.59766        19.22935        -0.64122
C          4.87618        18.57650        -0.47140
C          6.18891         2.05423         0.70903
C          6.16524         3.49232         0.86497
C          7.44914         1.37496         0.56409
C          7.47593         4.20467         1.05023
C          6.19076         6.37474         0.76589
C          6.19403         7.80418         0.66941
C          7.40938         5.66306         0.69079
C          7.40520         8.47076         0.54618
C          6.15233        10.56907         0.06716
C          6.36616        11.85009        -0.62717
C          7.42738         9.91366         0.40536
C          7.34729        12.68966        -0.16600
C          6.11110        14.86905        -0.69717
C          6.16435        16.40132        -0.69053
C          7.41951        14.12306        -0.56711
C          7.40187        17.11437        -0.38077
C          6.07764        19.23382        -0.34394
C          7.34971        18.53645        -0.19598
C          8.66884         2.05239         0.44356
C          8.68295         3.49539         0.48360
C          9.90298         1.36300         0.26197
C          9.83812         4.19014         0.16630
C          8.63111         6.34275         0.46530
C          8.63928         7.76006         0.47645
C          9.84746         5.64281         0.18717
C          9.85504         8.47199         0.36462
C          8.56750        10.64965         0.60539
C          8.29694        12.15423         0.88173
C          9.88223         9.89267         0.89599
C          9.50774        13.03970         0.99244
C          8.65945        14.92500        -0.31447
C          8.61899        16.41167        -0.19404
C          9.77251        14.23227         0.39433
C          9.78815        17.10750         0.12707
C          8.54083        19.23225         0.01803
C          9.80347        18.55422         0.11403
C         11.10306         2.05521         0.04750
C         11.07799         3.49248        -0.10202
C         12.35790         1.39086        -0.06103
C         12.24318         4.19217        -0.42610
C         10.98741         6.36521        -0.19012
C         10.98866         7.78174        -0.09454
C         12.14912         5.63533        -0.84245
C         12.13890         8.53810        -0.64396
C         11.10647        10.64135         0.40963
C         11.30723        11.91053         0.81347
C         12.17395        10.02494        -0.43515
C         12.25851        12.79268         0.06149
C         11.07173        14.91962         0.50114
C         11.02319        16.39857         0.53300
C         12.28147        14.25598         0.43487
C         12.32608        17.14423         0.46365
C         11.01961        19.24790         0.11927
C         12.31017        18.52384        -0.16250
C         13.53988         2.09845        -0.27830
C         13.50925         3.53207        -0.48754
C         14.80218         1.42380        -0.30975
C         14.71081         4.24904        -0.70115
C         13.47231         6.36463        -0.78124
C         13.41408         7.81838        -0.97210
C         14.69035         5.69997        -0.85170
C         14.72807         8.58462        -0.93568
C         13.51459        10.66410        -0.32264
C         13.55521        12.03983         0.19149
C         14.70241         9.99099        -0.48465
C         14.84943        12.79300         0.23418
C         13.56716        14.95473         0.36429
C         13.59232        16.38344         0.36515
C         14.78727        14.26637         0.18907
C         14.79841        17.09074         0.31308
C         13.57758        19.26130         0.15941
C         14.79411        18.56768         0.30060
C         15.98484         2.10562        -0.51558
C         15.97399         3.55164        -0.71918
C         17.24427         1.39639        -0.50866
C         17.16100         4.21646        -0.99546
C         15.94493         6.43613        -0.96295
C         15.98727         7.81860        -0.87327
C         17.22139         5.69397        -1.30088
C         17.22173         8.56681        -0.70175
C         15.97093        10.67578        -0.32937
C         16.03507        12.05025        -0.16184
C         17.20278         9.91495        -0.42881
C         17.27286        12.81475        -0.53211
C         16.02619        14.96173         0.08176
C         16.03514        16.37982         0.24587
C         17.25766        14.25803        -0.09141
C         17.28430        17.06733         0.27477
C         16.02215        19.23846         0.38428
C         17.27673        18.50053         0.75330
C         18.42617         2.02695        -0.77012
C         18.44779         3.48065        -1.12513
C         19.71787         1.36652        -0.63623
C         19.55309         4.18240        -0.17849
C         18.47689         6.37917        -0.75426
C         18.54718         7.87939        -0.95995
C         19.59064         5.68850        -0.38488
C         19.71485         8.53876        -0.25150
C         18.39330        10.61421         0.18529
C         18.52185        12.07758        -0.15013
C         19.68589         9.85589         0.10196
C         19.72032        12.77150         0.06437
C         18.47977        14.94877        -0.06743
C         18.47138        16.37565         0.07288
C         19.73924        14.21917        -0.02111
C         19.73636        17.12261        -0.25199
C         18.56511        19.22433         0.48057
C         19.71770        18.57202         0.18556
C         20.88402         2.04306        -0.52571
C         20.98169         3.54544        -0.60558
C         21.99141         4.19587         0.30107
C         20.84057         6.35759        -0.01715
C         20.91544         7.74500        -0.02429
C         21.94340         5.53485         0.47320
C         22.14403         8.47565         0.23660
C         20.87404        10.55994         0.73017
C         20.92452        12.05091         0.39868
C         22.15203         9.80446         0.48082
C         22.09999        12.77494         0.56199
C         20.96483        14.91647         0.15817
C         21.00445        16.37979         0.11894
C         22.13069        14.16955         0.41954
C         22.15904        17.10630         0.24071
C         20.99677        19.25958         0.17931
C         22.15786        18.54779         0.20086
O          6.12585        15.64337        -1.95235
O         14.02189         8.32118        -2.20330
O         11.74241         9.47370        -1.71231
O         11.64460        17.01298         1.73804
O         10.50965        12.48128         1.82366
O          4.13260        16.54325         0.73645
O         19.32134         3.87472         1.10590
O          8.35657        14.41838        -1.66574
O         14.21783        12.23272         1.46900
O          3.60676         2.61985         2.15167
O         18.80361         8.08366        -2.38806
H         18.17603         7.48526        -2.86769
O          3.73490        14.84494        -2.53508
H          4.61276        15.23307        -2.77476
O         17.33492         5.81442        -2.77274
H         18.06679         5.20243        -3.03515
O         11.83886        12.72016        -1.33085
H         12.39536        13.32679        -1.86235
O          7.67390        12.16962         2.20529
H          8.33673        11.82433         2.84089
O          5.62869        12.07201        -1.74384
H          5.92041        12.89579        -2.18717
O         18.88370         3.60018        -2.52543
H         18.33378         2.97533        -3.04498
O          5.31545        12.96357         1.57903
H          4.94818        12.18387         2.06906
O         11.82273         5.60445        -2.28162
H         11.95071         6.51190        -2.63542
O          3.54692        10.94398         2.09598
H          3.82826        10.08203         2.50103
O          9.97842         9.75648         2.34696
H         10.22173        10.64282         2.69942
O          4.93134         8.70719         2.46015
H          4.89359         7.79528         2.82139
O          7.71159         4.19058         2.52178
H          6.86364         4.42895         2.95414
O         19.75520        17.16379        -1.72786
H         20.56253        17.65694        -1.98833
O         17.21793        18.40417         2.23440
H         16.37218        17.96148         2.46341
O         17.26656        12.86462        -2.01622
H         18.03986        13.40106        -2.29521
O         20.67280        10.53061         2.20345
H         20.77516         9.59644         2.48768
O         12.33645        18.26377        -1.62476
H         12.37220        19.13228        -2.07864
O         21.35283         3.94774        -1.92408
H         20.68655         3.59592        -2.55911
O         18.04058        10.67141         1.62341
H         18.89017        10.81165         2.11930
H          0.37946         1.54075         0.03089
H          0.32326         3.96082         0.30795
H          2.49735         0.26715         0.08276
H          0.31255         5.86198         0.31852
H          0.32143         8.27885         0.12313
H          0.55573         9.89282        -0.85678
H          0.41850        12.28765        -1.33428
H          0.18655        14.45061        -0.72694
H          0.21566        16.89854        -1.11222
H          1.48919        19.11372        -0.95666
H          5.03417         0.27893         0.27675
H          3.58152        20.32970        -0.63696
H          7.43770         0.27672         0.49599
H          6.09566        20.33470        -0.34315
H          9.91178         0.26344         0.30585
H          8.52566        20.33167         0.06136
H         12.39767         0.29788         0.06058
H         11.00966        20.34875         0.08419
H         14.82298         0.33448        -0.15483
H         13.58593        20.36235         0.14019
H         17.23552         0.32588        -0.25132
H         16.03494        20.33928         0.39019
H         19.71448         0.26921        -0.53643
H         18.59941        20.29937         0.72166
H         21.81679         1.48095        -0.35500
H         22.79677         3.59447         0.75020
H         22.73051         6.03194         1.06054
H         23.09960         7.93545         0.16329
H         23.11273        10.31460         0.64058
H         23.03425        12.26380         0.83115
H         23.09012        14.68266         0.56852
H         23.12719        16.60954         0.39621
H         21.01022        20.35713         0.25355
H         23.12410        19.06899         0.25294
