         204
 CSIRO Nanostructure Databank - Neutral Graphene Oxide Data Set
C        -10.99755         0.62196        -0.91276
C         -9.81526         1.37680        -0.58150
C         -8.67393         0.65992        -0.11585
C         -7.53190         1.42524         0.39202
C         -6.21431         0.65725         0.65077
C         -4.96863         1.42888         0.57929
C         -3.74342         0.71817         0.49528
C         -2.51074         1.42904         0.51013
C         -1.29305         0.70382         0.51603
C         -0.04474         1.44228         0.71964
C          1.26851         0.67274         0.52986
C          2.48117         1.46032         0.29429
C          3.72378         0.78663        -0.12545
C          5.02959         1.42096         0.10912
C          6.16551         0.73608        -0.25025
C          7.42282         1.47396        -0.63686
C          8.68807         0.69784        -0.36511
C          9.92834         1.41515        -0.32414
C         11.14966         0.64754        -0.26557
C         -9.76756         2.77699        -0.69857
C         -8.58614         3.52899        -0.40600
C         -7.43977         2.86149         0.12571
C         -6.24218         3.56932         0.40453
C         -4.99298         2.84474         0.63125
C         -3.74832         3.54472         0.67479
C         -2.51768         2.86333         0.58332
C         -1.27713         3.60740         0.50981
C         -0.02074         2.89558         0.51053
C          1.20579         3.54652         0.41961
C          2.45465         2.83136         0.40959
C          3.72846         3.58249         0.58981
C          5.04448         2.83113         0.57327
C          6.40097         3.55099         0.62524
C          7.49380         2.89759        -0.17494
C          8.73382         3.59000        -0.24935
C          9.94781         2.81391        -0.34387
C         -8.52781         4.92410        -0.62729
C         -7.36767         5.66162        -0.30734
C         -6.23681         4.97994         0.23231
C         -5.06558         5.76968         0.61692
C         -3.73326         5.00160         0.85531
C         -2.49167         5.75553         0.65684
C         -1.28535         5.01210         0.48679
C         -0.05474         5.75052         0.16043
C          1.24982         4.97897         0.09014
C          2.52241         5.71942         0.18515
C          3.70533         5.04969         0.40713
C          4.98618         5.78329         0.30873
C          6.29332         5.05864         0.34050
C          7.43473         5.69736        -0.45677
C          8.73559         4.99542        -0.17538
C         -7.30230         7.08056        -0.51063
C         -6.13536         7.81716        -0.28702
C         -4.95729         7.17182         0.21680
C         -3.73333         7.86262         0.34866
C         -2.50921         7.15838         0.58626
C         -1.22365         7.93059         0.81248
C          0.01561         7.19706         0.37178
C          1.22107         7.87334         0.20905
C          2.47732         7.16661         0.05462
C          3.67159         7.87857        -0.09403
C          4.92530         7.10342        -0.44677
C          6.22152         7.87592        -0.29008
C          7.40626         7.20094        -0.29137
C         -6.07276         9.23732        -0.52726
C         -4.91117         9.93469        -0.33735
C         -3.69161         9.28383         0.05546
C         -2.48059         9.98598         0.06252
C         -1.23537         9.35209         0.29424
C         -0.01843        10.01449         0.13597
C          1.23189         9.32525         0.17494
C          2.46097        10.00041         0.04966
C          3.67878         9.30115        -0.07491
C          4.95156         9.98795        -0.14975
C          6.14142         9.32187        -0.21558
C        -11.01682        -0.74305        -0.81294
C         -9.84029        -1.48751        -0.45514
C         -8.64165        -0.75655        -0.12718
C         -7.42083        -1.47244         0.07064
C         -6.18883        -0.77919         0.32696
C         -4.96164        -1.43716         0.28483
C         -3.72825        -0.71977         0.44847
C         -2.50012        -1.41573         0.48293
C         -1.27131        -0.71137         0.48826
C         -0.01569        -1.43182         0.29221
C          1.17427        -0.73728         0.13105
C          2.36888        -1.40070        -0.41809
C          3.67832        -0.67344        -0.48657
C          4.93993        -1.43095        -0.40702
C          6.15056        -0.71327        -0.40537
C          7.39852        -1.42475        -0.38270
C          8.64974        -0.70221        -0.34232
C          9.88580        -1.44928        -0.27208
C         11.12671        -0.71662        -0.24083
C         -9.83741        -2.89076        -0.43162
C         -8.64744        -3.62261        -0.21247
C         -7.41118        -2.90204        -0.05006
C         -6.19516        -3.61354        -0.00345
C         -4.90353        -2.86798        -0.18159
C         -3.71129        -3.62491         0.30915
C         -2.49562        -2.89120         0.78494
C         -1.22656        -3.60717         0.40473
C         -0.03133        -2.89014         0.19933
C          1.17790        -3.60928         0.01429
C          2.39903        -2.90636        -0.39645
C          3.70061        -3.59348        -0.30027
C          4.91919        -2.86221        -0.34422
C          6.16411        -3.56768        -0.29756
C          7.39459        -2.84260        -0.32889
C          8.63935        -3.57101        -0.27276
C          9.86344        -2.84110        -0.25031
C         -8.61689        -5.04782        -0.22757
C         -7.42775        -5.75667        -0.06777
C         -6.17859        -5.03163         0.04890
C         -4.95821        -5.72956         0.20192
C         -3.72066        -5.01502         0.33740
C         -2.47104        -5.74750         0.44170
C         -1.23759        -5.02833         0.37644
C         -0.00520        -5.74056         0.23966
C          1.21218        -5.02155         0.08997
C          2.46204        -5.72209        -0.02929
C          3.69610        -5.00012        -0.15587
C          4.94020        -5.70980        -0.15446
C          6.16562        -4.99155        -0.22490
C          7.41332        -5.70736        -0.20773
C          8.62400        -4.97688        -0.22885
C         -7.37815        -7.20071        -0.13672
C         -6.21224        -7.90108         0.05922
C         -4.98834        -7.18417         0.57914
C         -3.68793        -7.89802         0.31777
C         -2.46940        -7.17483         0.35018
C         -1.22736        -7.88173         0.23978
C          0.00337        -7.16842         0.20171
C          1.24144        -7.86553         0.09904
C          2.47092        -7.14216         0.01677
C          3.71413        -7.84901        -0.03650
C          4.93979        -7.13527        -0.09649
C          6.19176        -7.84164        -0.11417
C          7.39313        -7.12753        -0.15952
C         -6.13623        -9.33682        -0.07350
C         -4.94929       -10.00279         0.00695
C         -3.68137        -9.30427         0.15014
C         -2.46203        -9.99832         0.08064
C         -1.22009        -9.31117         0.13947
C          0.02064        -9.99584         0.07792
C          1.24792        -9.30143         0.07029
C          2.50112        -9.98287         0.01969
C          3.71157        -9.28578        -0.01666
C          4.98154        -9.96953        -0.04403
C          6.16153        -9.28236        -0.08342
O          3.64247         0.33829        -1.54898
O          4.77387         6.75092        -1.85152
H          4.69705         7.58152        -2.36495
O         -1.11570         8.04898         2.28415
H         -1.93684         8.48230         2.60107
O          7.34076         1.54460        -2.11924
H          7.20795         0.62916        -2.44748
O         -4.55530         5.47985         1.95750
O          6.86996         3.42818         1.99666
H          6.15149         3.80226         2.55885
O         -5.13615        -7.19135         2.05665
H         -5.95047        -6.68592         2.26771
O         -4.71910        -2.77728        -1.66566
H         -5.55910        -2.43021        -2.03644
O         -2.54946        -2.96267         2.26745
H         -1.77425        -2.46930         2.61205
O          7.11806         5.39219        -1.85394
H          7.87571         5.67200        -2.40830
O          4.34818         3.07461         1.84482
O          0.51378         5.31386        -1.13782
O          2.15608        -2.15662        -1.65610
O         -7.10078         1.03185         1.74205
O          0.71495         0.94731         1.86991
O          5.84881         5.80900         1.50045
H         12.06718        -1.28559        -0.19600
H         12.10809         1.18676        -0.24032
H         10.91297         3.34209        -0.34337
H          9.68465         5.55336        -0.16749
H          8.35710         7.75384        -0.21879
H          7.08439         9.88974        -0.21367
H          4.94629        11.08735        -0.10588
H          2.47152        11.10100         0.03883
H         -0.01947        11.08788        -0.11124
H         -2.48604        11.05257        -0.21276
H         -4.88247        11.01727        -0.53163
H         -6.98208         9.75520        -0.86533
H         -8.19677         7.59621        -0.89051
H         -9.40250         5.44323        -1.04540
H        -10.65587         3.31440        -1.06232
H        -11.89759         1.16708        -1.23272
H        -11.93552        -1.29951        -1.05094
H        -10.77371        -3.43461        -0.62876
H         -9.55985        -5.59717        -0.37039
H         -8.30062        -7.74032        -0.40376
H         -7.06693        -9.89209        -0.26671
H         -4.92515       -11.09704        -0.10424
H         -2.46669       -11.09307        -0.03073
H          0.02356       -11.09494         0.02401
H          2.50920       -11.08330         0.01449
H          4.98352       -11.06952        -0.02712
H          7.11747        -9.82661        -0.09882
H          8.34807        -7.67463        -0.15988
H          9.57922        -5.52236        -0.19631
H         10.81207        -3.39693        -0.20112
