         404
 CSIRO Nanostructure Databank - Neutral Graphene Oxide Data Set
C          2.38167         2.48501         4.06733
C          2.14530         3.73293         3.45928
C          3.58392         1.82737         3.88808
C          3.13048         4.35814         2.68720
C          1.57721         6.07831         1.77295
C          1.35029         7.17582         0.94188
C          2.88513         5.61386         1.98088
C          2.43483         7.89033         0.43307
C          1.16736        10.82090         0.47300
C          1.25964        12.06878         1.05788
C          2.34207        10.12803         0.12678
C          2.52114        12.69897         1.18406
C          1.49604        14.76757         2.16612
C          1.57298        16.10485         2.50646
C          2.61025        14.07637         1.62054
C          2.77868        16.82661         2.32186
C          2.87671        18.23397         2.67199
C          4.61949         2.42321         3.11394
C          4.40347         3.72313         2.54299
C          5.83757         1.74825         2.88523
C          5.44622         4.35648         1.81412
C          3.98024         6.32775         1.40390
C          3.77995         7.58139         0.74293
C          5.26608         5.70239         1.32123
C          4.91890         8.40361         0.34284
C          3.62912        10.62990         0.35431
C          3.69617        12.00177         0.76903
C          4.86513         9.83962         0.16174
C          4.91770        12.73263         0.59964
C          3.83577        14.77808         1.44844
C          3.89698        16.15618         1.80316
C          4.95950        14.09092         0.85915
C          5.17092        16.89459         1.69578
C          4.00865        18.96199         2.47251
C          5.19983        18.36718         1.89735
C          6.85606         2.32996         2.10913
C          6.66867         3.66251         1.59092
C          8.05575         1.63099         1.80722
C          7.69597         4.25524         0.81517
C          6.28194         6.35463         0.60492
C          6.17570         7.73589         0.23184
C          7.45740         5.57163         0.21145
C          7.36184         8.45509        -0.16974
C          6.06474        10.55304        -0.03909
C          6.02721        12.06445        -0.18855
C          7.31096         9.88158        -0.23764
C          7.37709        12.72200        -0.01213
C          6.13303        14.87927         0.33085
C          6.29573        16.22893         0.98884
C          7.45659        14.12316         0.52848
C          7.41507        17.05002         0.43951
C          6.32132        19.08746         1.60079
C          7.46278        18.50810         0.85005
C          9.08857         2.22971         1.07568
C          8.92377         3.59018         0.60740
C         10.30100         1.52814         0.79917
C         10.04254         4.28022         0.04864
C          8.66008         6.32214        -0.36791
C          8.60536         7.79146        -0.39363
C          9.96265         5.65372        -0.29457
C          9.79431         8.50273        -0.66561
C          8.52577        10.60945        -0.47951
C          8.54235        12.05158        -0.34365
C          9.74727         9.93732        -0.72189
C          9.78849        12.77727        -0.49864
C          8.65399        14.92161         0.03815
C          8.66813        16.33453         0.11977
C          9.80954        14.19967        -0.35221
C          9.84350        17.10024        -0.13639
C          8.79325        19.09143         0.91264
C          9.91418        18.49473         0.33740
C         11.38862         2.14995         0.17981
C         11.29025         3.57299        -0.12789
C         12.62251         1.47129        -0.04177
C         12.40290         4.25527        -0.57500
C         11.11872         6.41759        -0.57082
C         11.05524         7.80772        -0.82786
C         12.40960         5.72283        -0.58678
C         12.22644         8.51453        -1.27736
C         10.92564        10.68049        -1.05860
C         10.95391        12.08728        -0.94215
C         12.08660         9.94932        -1.59265
C         12.18614        12.82521        -1.18991
C         11.01486        14.92816        -0.62258
C         10.99671        16.36605        -0.56606
C         12.20240        14.25630        -0.98076
C         12.17294        17.02505        -0.97802
C         11.15312        19.23508         0.50401
C         12.28316        19.05159        -0.28527
C         13.72844         2.10179        -0.63519
C         13.57636         3.51317        -1.05519
C         14.95870         1.46152        -0.87300
C         14.76752         4.26228        -1.58656
C         13.62841         6.48181        -1.07550
C         13.46046         7.88571        -1.48321
C         14.79496         5.73939        -1.57870
C         14.66020         8.58621        -1.88215
C         13.36728        10.73792        -1.92686
C         13.34204        12.17306        -1.61512
C         14.66384        10.01572        -1.95069
C         14.58731        12.92589        -1.81252
C         13.45381        14.97928        -1.03841
C         13.46200        16.43064        -0.92995
C         14.63527        14.30546        -1.32194
C         14.64521        17.20853        -0.91122
C         13.63362        19.40979        -0.10869
C         14.71688        18.64360        -0.65471
C         16.09610         2.12650        -1.40761
C         16.05516         3.54690        -1.70166
C         17.31032         1.43311        -1.59643
C         17.14338         4.22111        -2.21830
C         15.89001         6.42822        -2.03823
C         15.88369         7.87930        -2.05613
C         17.08937         5.67759        -2.48673
C         17.12099         8.59072        -2.14781
C         15.88269        10.70653        -1.97466
C         15.89769        12.18356        -2.01174
C         17.13111        10.01122        -2.00442
C         17.16974        12.88672        -1.73750
C         15.91999        14.95231        -1.09285
C         15.92521        16.47596        -0.85876
C         17.17747        14.28192        -1.47941
C         17.19865        17.16909        -1.08787
C         15.98116        19.27213        -0.70104
C         17.19906        18.59775        -0.99959
C         18.46173         2.06812        -2.10723
C         18.36190         3.47253        -2.53590
C         19.70153         1.41166        -2.18084
C         19.71436         4.27724        -2.68513
C         18.41111         6.45627        -2.55584
C         18.37017         7.89659        -2.20691
C         19.69315         5.72312        -2.44955
C         19.56130         8.57831        -1.94878
C         18.37552        10.72154        -1.93139
C         18.37566        12.16371        -1.78298
C         19.59612        10.00396        -1.86998
C         19.61375        12.87659        -1.73707
C         18.38854        15.00301        -1.44145
C         18.39324        16.44790        -1.27548
C         19.61812        14.30334        -1.64139
C         19.63044        17.15807        -1.34443
C         18.41941        19.29075        -1.10427
C         19.64076        18.59193        -1.25710
C         20.93277         2.10498        -2.32421
C         20.94901         3.54611        -2.40807
C         22.14943         1.40758        -2.15323
C         22.13866         4.26748        -2.23289
C         20.86847         6.37783        -2.11711
C         20.79704         7.80323        -1.71117
C         22.13696         5.68669        -2.08706
C         22.04476         8.54374        -1.38220
C         20.86501        10.71398        -1.73818
C         20.83271        12.16001        -1.91442
C         22.03177        10.03456        -1.36570
C         21.98760        12.92504        -2.20516
C         20.86146        15.00920        -1.62690
C         20.86730        16.45642        -1.48253
C         22.05697        14.29632        -1.84611
C         22.07409        17.17070        -1.50365
C         20.87400        19.28766        -1.29077
C         22.10049        18.60129        -1.37101
C         23.40620         2.06267        -2.12924
C         23.41913         3.53464        -2.33635
C         24.56209         1.36233        -1.80910
C         24.70331         4.31011        -2.10990
C         23.36088         6.38745        -1.80275
C         23.37514         7.90574        -1.73989
C         24.59297         5.73389        -1.70351
C         24.44460         8.44051        -0.78089
C         23.25982        10.66338        -0.88929
C         23.25625        12.07239        -0.34107
C         24.43660         9.95757        -0.74466
C         24.48895        12.89538        -0.63604
C         23.38651        14.95441        -1.67186
C         23.36365        16.45383        -1.57614
C         24.55347        14.20259        -1.08172
C         24.54439        17.18091        -1.01967
C         23.33811        19.31538        -1.31832
C         24.58481        18.66591        -1.18017
C         25.88263         1.97801        -1.70526
C         25.96118         3.53217        -1.83480
C         26.97371         1.33505        -0.99502
C         27.07270         4.20719        -1.15103
C         25.80889         6.44888        -1.35947
C         25.79379         7.79786        -1.02640
C         27.08240         5.68824        -1.28684
C         27.00099         8.53925        -0.71183
C         25.68268        10.63484        -0.29659
C         25.71716        12.17519        -0.26460
C         26.97348         9.94151        -0.45647
C         27.01577        12.83710        -0.44741
C         25.81570        14.91859        -0.94428
C         25.79361        16.40259        -0.84012
C         27.00602        14.27203        -0.63205
C         27.09061        17.13212        -0.95693
C         25.78815        19.34570        -1.01789
C         27.08509        18.64931        -0.98339
C         28.14952         2.03181        -0.63846
C         28.17007         3.50194        -0.68265
C         29.25876         1.34041        -0.14019
C         29.35910         4.18686        -0.19879
C         28.29916         6.40802        -0.82469
C         28.23021         7.86249        -0.59246
C         29.29051         5.67337         0.03967
C         29.43976         8.54291        -0.32866
C         28.19479        10.66286        -0.35289
C         28.19268        12.11270        -0.38764
C         29.43067         9.95194        -0.33261
C         29.46670        12.86806        -0.46737
C         28.24855        15.01295        -0.40129
C         28.29066        16.42263        -0.48560
C         29.44970        14.31362        -0.16844
C         29.47796        17.13237        -0.22068
C         28.32434        19.30733        -0.56008
C         29.48836        18.59878        -0.28028
C         30.40749         2.02938         0.52159
C         30.48489         3.50357         0.20941
C         31.72245         1.33010         0.37178
C         31.72609         4.19542         0.49685
C         30.61895         6.37696         0.08823
C         30.66410         7.77564        -0.06944
C         31.77425         5.63590         0.42981
C         31.89289         8.44802         0.16690
C         30.72990        10.65247        -0.43156
C         30.77441        12.14978        -0.41257
C         31.98846         9.89214        -0.15051
C         31.96088        12.85344         0.13721
C         30.65533        14.99844         0.12489
C         30.63263        16.41396         0.16858
C         31.90167        14.25821         0.35504
C         31.81840        17.16491         0.61980
C         30.72288        19.28336        -0.05144
C         31.90184        18.61047         0.30469
C         32.91530         2.01660         0.54652
C         32.91468         3.47171         0.68600
C         34.16330         1.32939         0.59065
C         34.15550         4.15672         0.92262
C         32.98411         6.32218         0.73092
C         33.01392         7.73484         0.61114
C         34.17701         5.57796         1.04946
C         34.18133         8.46382         1.14575
C         33.22540        10.66798         0.21049
C         33.13445        12.13614         0.44650
C         34.36964         9.90584         0.81455
C         34.26196        12.81607         0.96640
C         33.08792        14.93633         0.72255
C         33.08601        16.40252         0.90752
C         34.28847        14.23247         0.98142
C         34.37706        17.11391         0.82316
C         33.15037        19.24564         0.38158
C         34.37431        18.53707         0.59212
C         35.37596         2.00023         0.83649
C         35.37713         3.43538         1.01642
C         36.60533         1.30060         0.89293
C         36.60581         4.12291         1.22251
C         35.39186         6.23927         1.37606
C         35.36902         7.68923         1.65370
C         36.61522         5.54182         1.41346
C         36.66778         8.40981         1.90286
C         35.44003        10.62668         1.50081
C         35.39845        12.07180         1.53360
C         36.66788         9.92540         1.90356
C         36.73826        12.83787         1.72211
C         35.55235        14.94929         1.16153
C         35.56749        16.40018         0.95155
C         36.73698        14.26744         1.36256
C         36.82569        17.09008         0.84603
C         35.60541        19.20464         0.48452
C         36.83416        18.50440         0.58031
C         37.82455         1.97418         1.08674
C         37.83653         3.39759         1.24288
C         39.06837         1.26281         1.11860
C         39.07449         4.08847         1.39584
C         37.87673         6.24798         1.56178
C         37.92160         7.65727         1.68227
C         39.10192         5.51723         1.52165
C         39.15318         8.35504         1.65641
C         37.94665        10.65605         1.68820
C         37.97712        12.02179         1.62073
C         39.16684         9.82962         1.45047
C         39.26466        12.77362         1.50312
C         38.06600        14.98218         1.48771
C         38.04653        16.39414         0.95696
C         39.18639        14.15181         0.84960
C         39.27612        17.04122         0.72734
C         38.07174        19.16567         0.42981
C         39.28658        18.45799         0.48061
C         40.25751         1.92938         1.27271
C         40.29168         3.35229         1.40178
C         41.52172         4.05400         1.52685
C         40.35056         6.20266         1.62007
C         40.37314         7.63913         1.65398
C         41.55015         5.42733         1.62234
C         41.62091         8.36795         1.77572
C         40.50846        10.52255         1.36229
C         40.56207        12.02431         1.43784
C         41.69449         9.72011         1.69770
C         41.71331        12.72802         0.84227
C         40.51535        14.87814         0.82305
C         40.52586        16.30307         0.73337
C         41.68891        14.08889         0.65405
C         41.72817        17.03454         0.60263
C         40.53455        19.12965         0.32566
C         41.72421        18.42302         0.40872
O          7.70426         5.63794        -1.23822
O         34.34859        10.23800        -0.63934
O         15.99686        15.52525         0.26472
O         13.75255         3.71756        -2.52015
O         35.86771        12.57325         2.85288
O         22.39866        12.46326         0.43204
O         13.40298         6.27161         0.37782
O         40.09695        12.64423         2.69376
O         27.27924        17.80946        -2.22639
O         39.80549        10.11911         0.13648
O         34.32865         8.15014         2.57216
O         28.16882         6.07288        -2.23490
O         32.20963        16.84935         2.00797
O         21.29416         7.93168        -0.29894
O         24.96572        16.78986         0.33388
O         15.17923        12.75216        -3.16713
O         30.27326        12.65852        -1.69727
O         36.65656         9.14698         3.17302
O         18.95761         3.77252        -3.82049
O         23.72744        15.78752        -2.84562
O         12.05374        18.30726        -1.47500
O         17.63380         6.13081        -3.75636
O          7.05623        18.07189        -0.52344
O         24.21042         4.04438        -3.46196
O         31.56238        10.13770        -1.53308
O          2.16084         8.89143        -0.50699
O         25.58598        11.37859         0.96625
O          6.26949        16.20434         2.43841
O         12.43150        10.31407        -2.97081
O         26.35284         2.68649        -2.92260
O          5.67570        12.33578        -1.61074
H          6.31595        11.84520        -2.17075
O         23.03787        12.35551        -2.86075
H         23.66827        13.05129        -3.14006
O         23.67634         8.36921        -3.07863
H         24.43470         7.85318        -3.42563
O          7.63215        13.97259         1.97158
H          8.47383        13.49485         2.12576
O          5.92877        15.10158        -1.07735
H          5.74648        14.22490        -1.50047
O         38.78288        13.93081        -0.53075
H         39.52084        13.49179        -1.00407
O         30.08945         1.99076         1.98752
H         29.19836         2.38836         2.09592
O         28.72119         5.80657         1.39598
H         29.38543         5.46321         2.03147
O         38.37018        15.06256         2.90386
H         37.60804        15.47176         3.36367
O         24.05662         8.01900         0.55656
H         24.54872         8.56082         1.20865
H          1.58859         2.02504         4.67337
H          1.16856         4.21323         3.60759
H          3.75267         0.83913         4.33900
H          0.71869         5.52728         2.17868
H          0.32975         7.46998         0.66583
H          0.19272        10.35378         0.28273
H          0.34115        12.59544         1.34628
H          0.55035        14.23594         2.33678
H          0.69713        16.61660         2.93043
H          1.98420        18.71689         3.09691
H          5.98381         0.74198         3.30503
H          4.03047        20.03250         2.72470
H          8.17789         0.60018         2.17187
H          6.35636        20.16344         1.83265
H         10.38520         0.47679         1.11293
H          8.91644        20.05015         1.43925
H         12.70622         0.41719         0.26337
H         11.18028        19.98623         1.30745
H         15.05625         0.39494        -0.61967
H         13.89129        20.27144         0.52466
H         17.36831         0.36950        -1.32176
H         16.02998        20.35089        -0.49160
H         19.73938         0.33576        -1.95325
H         18.43041        20.38776        -1.02732
H         22.12054         0.31765        -2.00758
H         20.87256        20.38444        -1.20798
H         24.47432         0.29837        -1.54082
H         23.30736        20.41502        -1.32413
H         26.87696         0.27372        -0.72222
H         25.78730        20.44569        -0.98379
H         29.21992         0.24152        -0.08866
H         28.33285        20.40492        -0.48107
H         31.73232         0.23703         0.24696
H         30.75682        20.37136        -0.21264
H         34.17218         0.23722         0.45790
H         33.20789        20.32571         0.17827
H         36.60721         0.20800         0.76342
H         35.61899        20.28658         0.28621
H         39.05447         0.16867         1.00980
H         38.08569        20.25229         0.25848
H         41.20668         1.37423         1.28920
H         42.46222         3.48425         1.53153
H         42.52459         5.92772         1.69609
H         42.53880         7.80820         2.00096
H         42.64179        10.23844         1.90450
H         42.62337        12.15634         0.61091
H         42.62036        14.58001         0.33522
H         42.69482        16.51443         0.63760
H         40.54173        20.21525         0.15281
H         42.68209        18.95191         0.30489
