         600
 CSIRO Nanostructure Databank - Neutral Graphene Oxide Data Set
C         22.96889        27.31983         0.33115
C         22.95522        28.69110         0.24450
C         22.96637        31.61709        -0.16775
C         22.93059        32.97881        -0.17515
C         22.99525        35.92932        -0.50407
C         23.05100        37.27299        -0.86526
C         23.10274        40.19411        -1.42930
C         23.17806        41.52496        -1.68900
C         23.31810        44.38126        -2.41258
C         23.37133        45.73368        -2.65636
C         25.40031        24.50340         0.66175
C         24.21510        25.19026         0.53782
C         25.42494        27.33189         0.50769
C         24.19425        26.60864         0.45395
C         25.41942        28.75495         0.41739
C         24.16677        29.45372         0.26412
C         25.43096        31.59102         0.11960
C         24.15224        30.86129         0.12881
C         25.40713        33.08660         0.05962
C         24.09489        33.79841         0.31707
C         25.40070        35.92501        -0.13092
C         24.16235        35.23661        -0.16812
C         25.45978        37.30670        -0.46374
C         24.26824        37.96665        -0.86396
C         25.63813        40.10923        -1.29406
C         24.30938        39.35998        -1.37486
C         25.61308        41.57956        -1.34765
C         24.42964        42.25042        -1.70611
C         25.67192        44.38843        -1.72305
C         24.45994        43.67085        -1.93934
C         25.72674        45.79767        -1.95430
C         24.56863        46.47230        -2.43009
C         25.79467        48.57353        -2.44353
C         24.62923        47.86939        -2.67077
C         27.93549        23.04384         0.86689
C         27.89009        24.48777         0.84521
C         26.65645        25.18597         0.71683
C         27.87995        27.34092         0.74792
C         26.65470        26.61754         0.64817
C         27.86105        28.75841         0.75080
C         26.65787        29.46522         0.54378
C         27.86260        31.63111         0.68727
C         26.67738        30.90405         0.49559
C         27.82942        33.12418         0.94647
C         26.62788        33.85616         0.40341
C         27.83504        35.99954         0.69499
C         26.61551        35.21123         0.27553
C         27.89201        37.38892         0.10027
C         26.73010        38.03638        -0.36897
C         27.98071        40.17201        -0.48606
C         26.79646        39.42118        -0.70026
C         27.98992        41.60419        -0.64636
C         26.81193        42.29982        -1.06593
C         28.03239        44.44924        -0.98352
C         26.83759        43.71001        -1.25525
C         28.08744        45.85892        -1.20793
C         26.93180        46.53288        -1.70962
C         28.18531        48.67745        -1.70340
C         26.96549        47.93502        -1.95789
C         28.26036        50.06908        -1.98549
C         30.39661        23.05407         1.29830
C         29.08714        22.35971         1.04795
C         30.37348        24.51183         0.89472
C         29.13231        25.20988         0.87095
C         30.36710        27.35851         0.79135
C         29.12680        26.63417         0.81911
C         30.37681        28.77719         0.83193
C         29.10209        29.49708         1.17229
C         30.33828        31.65132         0.75512
C         29.10350        30.95827         0.82414
C         30.34397        33.08427         0.61863
C         29.12614        33.82472         0.61941
C         30.35582        35.92413         0.43126
C         29.12090        35.21302         0.50957
C         30.35344        37.34372         0.26235
C         29.14685        38.06384         0.07296
C         30.41691        40.20866        -0.09738
C         29.18985        39.48534        -0.17264
C         30.41030        41.65012        -0.09787
C         29.16618        42.34933        -0.34382
C         30.31355        44.54723        -0.03002
C         29.15898        43.76047        -0.46309
C         30.39263        45.96602        -0.34752
C         29.29085        46.60101        -0.92055
C         30.52567        48.76828        -0.90577
C         29.32548        48.02858        -1.17360
C         30.56724        50.15837        -1.20872
C         29.41361        50.78098        -1.75314
C         32.89822        20.23424         0.77434
C         31.74157        20.88498         1.06003
C         32.81399        23.06162         0.29102
C         31.55014        22.28583         0.67837
C         32.82975        24.51640         0.50261
C         31.59098        25.21016         0.69422
C         32.82918        27.35701         0.60958
C         31.59606        26.64519         0.68218
C         32.82789        28.78502         0.63830
C         31.58827        29.49580         0.74577
C         32.82182        31.64440         0.68067
C         31.58277        30.93749         0.74675
C         32.83376        33.06771         0.65367
C         31.58442        33.78545         0.58293
C         32.83277        35.91634         0.76981
C         31.57352        35.19475         0.52612
C         32.84787        37.40538         0.59354
C         31.65106        38.01601        -0.08874
C         32.88076        40.17835         0.05735
C         31.64867        39.51273         0.03602
C         32.89377        41.62968        -0.17661
C         31.62079        42.35060        -0.03698
C         32.92265        44.55277         0.11272
C         31.65335        43.78591         0.18755
C         32.89649        45.95910         0.10389
C         31.58449        46.72827         0.18918
C         32.89591        48.82031        -0.23975
C         31.69040        48.12563        -0.37228
C         32.93635        50.24019        -0.49972
C         31.76639        50.91209        -0.94724
C         32.96991        53.02911        -0.88472
C         31.81184        52.31984        -1.11382
C         35.33410        18.78368         0.03562
C         35.27571        20.18899         0.02172
C         34.07273        20.91404         0.27321
C         35.30666        23.06859         0.12788
C         34.07609        22.32755         0.20220
C         35.29621        24.49369         0.26864
C         34.05497        25.20929         0.44043
C         35.29611        27.35369         0.45398
C         34.06431        26.64258         0.51566
C         35.29750        28.78299         0.51225
C         34.06365        29.49822         0.59749
C         35.30319        31.63430         0.61278
C         34.06517        30.92650         0.63629
C         35.31706        33.06224         0.65275
C         34.07933        33.77466         0.66616
C         35.32133        35.91236         0.71497
C         34.10605        35.19353         0.71931
C         35.33409        37.35382         0.65703
C         34.14176        38.09545         0.46785
C         35.33386        40.25452         0.48876
C         34.12805        39.50154         0.26386
C         35.38905        41.64756         0.41253
C         34.19573        42.39355        -0.02380
C         35.37240        44.55228         0.35880
C         34.15421        43.85645         0.17018
C         35.35836        45.98224         0.33941
C         34.12239        46.67758         0.16512
C         35.33472        48.81078         0.24943
C         34.12642        48.11329         0.09228
C         35.29860        50.28704         0.28911
C         34.11805        50.98743        -0.24574
C         35.41837        53.11912        -0.37519
C         34.15986        52.38061        -0.46169
C         35.47195        54.51088        -0.66239
C         37.77804        18.77949        -0.24419
C         36.52519        18.09663        -0.15734
C         37.78084        20.19364        -0.25060
C         36.48678        20.93434        -0.47847
C         37.76019        23.07590        -0.04162
C         36.52676        22.38086        -0.06382
C         37.76076        24.50205         0.09218
C         36.52593        25.20915         0.22692
C         37.76081        27.35505         0.28695
C         36.52989        26.64059         0.32756
C         37.76596        28.78247         0.37514
C         36.53414        29.49516         0.48051
C         37.77544        31.63629         0.54576
C         36.53946        30.92187         0.54859
C         37.78708        33.06270         0.63362
C         36.55293        33.77652         0.68025
C         37.80140        35.91961         0.77011
C         36.56676        35.20661         0.72513
C         37.80045        37.35373         0.83913
C         36.57482        38.04174         0.76497
C         37.82000        40.25328         1.10408
C         36.51201        39.49976         0.95234
C         37.81487        41.71360         0.88721
C         36.60361        42.39417         0.66073
C         37.81589        44.55672         0.74590
C         36.60012        43.83150         0.57211
C         37.81510        45.98857         0.63892
C         36.58539        46.70513         0.46218
C         37.83080        48.85441         0.45919
C         36.57799        48.13035         0.42057
C         37.86742        50.27257         0.31936
C         36.61300        51.04515         0.33231
C         37.87895        53.11760        -0.23935
C         36.62870        52.44750        -0.12089
C         37.90716        54.50892        -0.55380
C         36.67121        55.18393        -0.73273
C         40.25202        15.95361        -0.55795
C         39.05994        16.63831        -0.42672
C         40.25390        18.77917        -0.26080
C         39.02474        18.05259        -0.30035
C         40.22153        20.19162        -0.12920
C         38.99952        20.91624        -0.19006
C         40.23175        23.08469        -0.12528
C         39.00162        22.35998        -0.13021
C         40.22969        24.51879        -0.06506
C         38.99476        25.22248         0.05857
C         40.22895        27.36367         0.11039
C         38.99597        26.64634         0.15465
C         40.23199        28.78875         0.20820
C         39.00052        29.49824         0.34368
C         40.24294        31.63706         0.43300
C         39.00675        30.92262         0.44384
C         40.25501        33.06106         0.56310
C         39.02513        33.77685         0.65854
C         40.28382        35.90598         0.82553
C         39.03964        35.20371         0.75175
C         40.31103        37.34453         0.90681
C         39.05617        38.08564         0.89072
C         40.29885        40.25033         0.86504
C         39.05466        39.47890         0.91755
C         40.24108        41.68974         1.19701
C         39.04713        42.41951         1.06100
C         40.24154        44.60410         1.18986
C         39.03761        43.86636         1.02828
C         40.24797        45.99543         0.97213
C         39.04285        46.70321         0.70866
C         40.29763        48.85481         0.53588
C         39.05715        48.14031         0.57270
C         40.31980        50.25662         0.30608
C         39.08462        50.97117         0.19601
C         40.33537        53.08602        -0.11292
C         39.10372        52.39711        -0.03383
C         40.35386        54.46723        -0.44691
C         39.17257        55.18302        -0.68057
C         40.43061        57.27623        -1.01765
C         39.24794        56.59127        -1.01354
C         42.71967        15.95298        -0.77542
C         41.48875        16.64544        -0.58119
C         42.74155        18.74384        -0.49515
C         41.50356        18.06362        -0.42059
C         42.77263        20.18210        -0.20148
C         41.46924        20.94058         0.02955
C         42.70606        23.10363        -0.21918
C         41.47376        22.39876        -0.14080
C         42.70305        24.53302        -0.20449
C         41.46225        25.23340        -0.09294
C         42.69483        27.37697        -0.09602
C         41.46203        26.65980        -0.02470
C         42.69514        28.79882        -0.00805
C         41.46467        29.50335         0.16279
C         42.70305        31.63972         0.24784
C         41.46816        30.92536         0.28563
C         42.71536        33.05464         0.41368
C         41.49479        33.76943         0.59078
C         42.77047        35.87328         0.91171
C         41.51098        35.18890         0.77648
C         42.79010        37.30673         1.14787
C         41.53610        38.00840         1.07270
C         42.75700        40.15802         1.72242
C         41.59070        39.48324         1.02923
C         42.75768        41.64934         1.48972
C         41.48115        42.34025         1.58923
C         42.78501        44.55336         1.42790
C         41.48197        43.91635         1.61614
C         42.79950        46.01438         1.31344
C         41.49867        46.75773         1.14764
C         42.76212        48.82251         0.57054
C         41.54254        48.16582         0.69226
C         42.79463        50.24333         0.39186
C         41.56648        50.95420         0.26219
C         42.80882        53.06395         0.17673
C         41.58737        52.37358         0.10087
C         42.75594        54.57367         0.24203
C         41.69720        55.10606        -0.71720
C         42.86706        57.28752        -0.61999
C         41.67336        56.61776        -0.73820
C         43.91658        16.62646        -0.82498
C         45.22167        18.75653        -0.66377
C         43.96951        18.04824        -0.69035
C         45.23535        20.20894        -0.87683
C         43.91828        20.97894        -0.68471
C         45.16773        23.11401        -0.53376
C         43.94741        22.41929        -0.42135
C         45.16987        24.54288        -0.44396
C         43.93330        25.24600        -0.30316
C         45.15540        27.39354        -0.35371
C         43.92967        26.67413        -0.25168
C         45.15275        28.81838        -0.29895
C         43.92642        29.51901        -0.09792
C         45.15273        31.66324        -0.06652
C         43.92549        30.93847         0.03835
C         45.17680        33.07252         0.15137
C         43.95938        33.76004         0.41273
C         45.26432        35.79313         0.97088
C         43.96412        35.15317         0.71972
C         45.27301        37.25613         1.36013
C         44.01057        38.01304         1.29198
C         45.25375        40.16180         1.46033
C         44.06709        39.45591         1.42230
C         45.30755        41.62065         1.72294
C         43.96408        42.39881         1.78868
C         45.24463        44.53313         1.40379
C         43.98833        43.85634         1.52938
C         45.25224        45.96439         1.12962
C         44.06952        46.66816         0.99486
C         45.29355        48.83284         0.68742
C         44.04764        48.04475         0.38576
C         45.28098        50.23757         0.61351
C         44.03470        50.95451         0.42394
C         45.28133        53.10956         0.46604
C         44.03467        52.37174         0.35156
C         45.30096        54.52648         0.34299
C         44.08870        55.26060         0.03285
C         44.08416        56.58542        -0.33525
C         47.65146        18.84336        -0.42646
C         46.46613        18.12644        -0.45806
C         47.69169        20.27044        -0.52321
C         46.46581        20.98358        -0.69518
C         47.65227        23.12877        -0.59760
C         46.42337        22.39492        -0.63778
C         47.64335        24.55245        -0.58494
C         46.39793        25.26467        -0.51561
C         47.62528        27.41115        -0.56572
C         46.39362        26.68674        -0.48380
C         47.62562        28.83649        -0.61382
C         46.37309        29.55000        -0.46966
C         47.53778        31.73695        -0.73936
C         46.34201        30.95698        -0.40417
C         47.57655        33.16155        -0.42173
C         46.42907        33.80813         0.04784
C         47.70142        35.93590         0.28291
C         46.48316        35.18799         0.41134
C         47.75665        37.32386         0.66407
C         46.58645        37.97951         1.28016
C         47.75609        40.24418         0.94779
C         46.56728        39.48180         1.37278
C         47.74040        41.67129         1.04880
C         46.52339        42.38220         1.40078
C         47.72985        44.55798         1.37818
C         46.46436        43.79556         1.39233
C         47.72605        46.00758         1.10852
C         46.51258        46.68710         0.98965
C         47.74002        48.83667         0.91417
C         46.50773        48.11999         0.85587
C         47.73522        50.26172         0.86461
C         46.50736        50.96640         0.73338
C         47.73292        53.11659         0.79068
C         46.50361        52.40196         0.66972
C         47.70777        54.52922         0.72596
C         46.52941        55.21104         0.49679
C         50.17713        20.34178        -0.22223
C         48.91136        20.99888        -0.47362
C         50.12501        23.14779        -0.64980
C         48.90013        22.42375        -0.59904
C         50.11713        24.55687        -0.61358
C         48.87193        25.27252        -0.60057
C         50.09667        27.42135        -0.65487
C         48.86493        26.70123        -0.60716
C         50.09920        28.84717        -0.67075
C         48.86103        29.53345        -0.69698
C         50.11135        31.76676        -0.70612
C         48.85937        30.99325        -0.88241
C         50.08672        33.13814        -0.69448
C         48.79802        33.92993        -0.84058
C         50.10544        36.01263        -0.22957
C         48.86875        35.31034        -0.22599
C         50.12612        37.41801         0.06616
C         48.92289        38.08722         0.45963
C         50.13539        40.26683         0.34529
C         48.92891        39.53828         0.61197
C         50.14077        41.69234         0.44305
C         48.95388        42.36779         0.82769
C         50.21460        44.56895         0.71648
C         49.02570        43.80543         1.12179
C         50.20607        45.98217         0.83936
C         48.97031        46.70159         1.00140
C         50.21868        48.83537         0.92522
C         48.97746        48.12072         0.95565
C         50.21777        50.26516         0.95558
C         48.97952        50.97946         0.92939
C         50.22284        53.07755         1.02701
C         48.97902        52.39802         0.92931
C         51.35166        20.98876        -0.37674
C         52.66246        23.11431        -0.60801
C         51.39460        22.37910        -0.96077
C         52.60670        24.55589        -0.19668
C         51.34924        25.29925        -0.58953
C         52.58802        27.44355        -0.83836
C         51.32958        26.68436        -0.65933
C         52.59188        28.90398        -0.64626
C         51.35159        29.60171        -0.65105
C         52.59579        31.73281        -0.58564
C         51.35945        31.01912        -0.64244
C         52.61228        33.16148        -0.61394
C         51.35220        33.90792        -0.97624
C         52.55472        36.03182        -0.44436
C         51.33441        35.33724        -0.49116
C         52.56507        37.45474        -0.28817
C         51.34478        38.14359        -0.05335
C         52.55924        40.29596        -0.13001
C         51.34836        39.57293         0.06299
C         52.53063        41.72245        -0.12600
C         51.35580        42.42638         0.18258
C         52.57819        44.61788         0.14575
C         51.37584        43.87862         0.30648
C         52.63444        45.99914         0.43284
C         51.42766        46.70501         0.71076
C         52.69516        48.83313         0.78915
C         51.44564        48.12651         0.83119
C         52.69849        50.25301         0.89353
C         51.45509        50.97296         0.97799
C         51.41675        52.39123         1.05014
C         55.08952        23.15360        -0.30924
C         53.88503        22.47158        -0.57642
C         55.12447        24.57981        -0.30565
C         53.90375        25.26919        -0.44682
C         55.12506        27.46749        -0.44399
C         53.90836        26.70141        -0.72626
C         55.08410        28.87413        -0.45193
C         53.82435        29.58883        -0.55535
C         55.06415        31.72806        -0.44548
C         53.82888        31.01532        -0.50692
C         55.06377        33.15286        -0.42165
C         53.81110        33.86678        -0.49760
C         55.00861        36.03408        -0.47351
C         53.81109        35.31981        -0.49898
C         55.02306        37.45815        -0.51214
C         53.79585        38.17530        -0.38558
C         55.03651        40.30960        -0.45688
C         53.79580        39.59869        -0.33945
C         55.04959        41.72890        -0.47274
C         53.76593        42.43843        -0.49113
C         55.09063        44.61758        -0.13490
C         53.79313        43.95888        -0.34238
C         55.10195        45.97394         0.23903
C         53.89624        46.69831         0.42626
C         55.17045        48.83167         0.58531
C         53.92172        48.11420         0.63548
C         55.13229        50.25537         0.70069
C         53.95043        50.93453         0.85784
C         57.63832        24.66236        -0.22591
C         56.36151        25.32264        -0.23206
C         57.53911        27.48957        -0.01868
C         56.33759        26.75848        -0.19530
C         57.54360        28.89497        -0.16388
C         56.30868        29.59835        -0.33062
C         57.53859        31.73615        -0.36525
C         56.30595        31.02356        -0.37923
C         57.52362        33.16087        -0.43721
C         56.29293        33.84680        -0.41138
C         57.44647        35.97073        -1.05664
C         56.32792        35.34356        -0.23522
C         57.48722        37.47213        -0.85851
C         56.26526        38.17051        -0.64936
C         57.49102        40.31624        -0.78877
C         56.26568        39.59635        -0.61682
C         57.50063        41.74546        -0.73444
C         56.26280        42.45987        -0.54727
C         57.55033        44.58221        -0.38973
C         56.28833        43.87915        -0.35898
C         57.59256        45.96939        -0.10339
C         56.41312        46.63798         0.55251
C         57.64157        48.80139         0.24769
C         56.39440        48.13892         0.40521
C         58.79522        25.32890         0.02563
C         60.03550        27.51135         0.01414
C         58.79037        26.77478         0.42389
C         60.02036        28.84612        -0.19532
C         58.78966        29.61727        -0.18409
C         60.00109        31.79183        -0.29127
C         58.78468        31.02341        -0.29052
C         59.99529        33.15174        -0.41576
C         58.77395        33.89818        -0.53912
C         59.95276        36.03892        -1.00755
C         58.76826        35.27544        -0.80014
C         59.91553        37.40356        -1.16481
C         58.69635        38.15943        -1.02753
C         59.90363        40.34102        -1.17944
C         58.70977        39.60402        -0.99839
C         59.90888        41.72171        -1.12577
C         58.72255        42.45467        -0.88616
C         59.94186        44.64614        -0.89023
C         58.74660        43.89907        -0.74490
C         59.96420        46.01168        -0.67517
C         58.79540        46.69133        -0.25172
C         58.80460        48.11332        -0.02415
O         37.01492        39.88561         2.28237
O         25.54305        32.36742        -1.19009
O         44.38569        20.62390        -2.01440
O         35.80696        50.84381         1.55152
O         46.87866        38.64857         2.55632
O         53.30369        27.02912        -2.05574
O         30.80893        44.20606         1.31978
O         48.60540        44.16582         2.48954
O         44.68716        41.97828         3.00825
O         42.08837        46.62937         2.49712
O         31.80078        22.60955        -0.70264
O         33.69496        42.01084        -1.36778
O         41.35041        43.14268         2.82911
O         32.65861        36.85533         1.92521
O         25.17432        39.48712        -2.55060
O         53.62406        43.32713        -1.65846
O         41.22026        39.99901        -0.28760
O         45.34494        36.21907         2.39401
O         42.33853        20.50532         1.15224
O         48.10432        31.41652        -2.08473
O         27.70879        36.18555         2.14499
H         27.65881        35.27997         2.53847
O         52.50987        24.53409         1.30488
H         53.25372        23.97825         1.62586
O         36.32485        20.97234        -1.96015
H         36.22572        20.04258        -2.25860
O         48.64765        34.14119        -2.31021
H         48.42896        33.24512        -2.67402
O         44.09522        47.79942        -1.08213
H         44.17711        48.67498        -1.51820
O         31.87113        37.73195        -1.52206
H         31.17744        38.20436        -2.02989
O         42.09111        54.67892        -2.05680
H         41.44287        55.05172        -2.69011
O         42.52635        39.98230         3.15361
H         43.21876        40.50742         3.61935
O         51.38508        34.02048        -2.44841
H         50.46728        34.27703        -2.72357
O         27.69929        33.24555         2.41745
H         28.36471        32.64648         2.82189
O         58.77833        26.79064         1.90683
H         58.79408        27.73261         2.18070
O         56.66622        35.58789         1.16515
H         55.95424        35.20604         1.71967
O         31.32323        46.90020         1.62675
H         31.15738        45.99408         1.98510
O         29.05300        29.49064         2.67175
H         29.05636        28.54900         2.94976
O         51.41213        22.21385        -2.42551
H         50.60292        21.71715        -2.67167
O         23.97999        33.86876         1.77553
H         23.19348        34.41179         1.99189
O         42.31913        54.91427         1.58996
H         42.98523        54.56906         2.22019
O         56.61497        46.41081         2.01247
H         57.46903        46.83316         2.24834
O         30.64580        23.01853         2.74515
H         29.88567        23.45243         3.18701
O         57.12117        35.74489        -2.45958
H         57.82949        36.15120        -3.00137
H         22.02547        26.75540         0.30617
H         21.99139        29.20983         0.15671
H         22.04532        31.07306        -0.42369
H         21.98203        33.47767        -0.42100
H         22.02285        35.41894        -0.51284
H         22.12638        37.77705        -1.17529
H         22.11885        39.73546        -1.25824
H         22.24173        42.09453        -1.76638
H         22.38140        43.84267        -2.60848
H         22.48352        46.26245        -3.03225
H         25.36760        23.40798         0.72427
H         23.26273        24.64159         0.50104
H         25.79663        49.65347        -2.63952
H         23.73381        48.38960        -3.04003
H         27.00630        22.47630         0.72129
H         27.39561        50.59664        -2.40714
H         29.07219        21.26031         1.06619
H         29.42911        51.84965        -2.00266
H         32.98269        19.17314         1.04549
H         30.94328        20.37235         1.61556
H         32.95499        54.11528        -1.03959
H         30.91555        52.86926        -1.42905
H         34.42339        18.19594         0.21556
H         34.54678        55.07827        -0.82499
H         36.49821        16.99970        -0.14528
H         36.65611        56.26121        -0.94298
H         40.24829        14.85978        -0.66976
H         38.12340        16.06557        -0.44347
H         40.43669        58.36177        -1.19914
H         38.32121        57.14232        -1.22105
H         42.69773        14.86011        -0.89640
H         42.90329        58.37917        -0.75362
H         44.84560        16.06437        -0.99231
H         45.02472        57.14934        -0.41374
H         48.58834        18.28706        -0.29397
H         46.50660        17.03665        -0.32152
H         48.63329        55.10782         0.83951
H         46.55520        56.30737         0.44284
H         50.17861        19.30183         0.13338
H         50.25166        54.17396         1.06959
H         52.29265        20.46124        -0.16673
H         52.34912        52.96740         1.10998
H         56.01932        22.57536        -0.24170
H         53.94457        21.39462        -0.79011
H         56.06786        50.82941         0.67797
H         53.98377        52.02797         0.94869
H         57.68132        23.58670        -0.44839
H         57.68770        49.89808         0.30159
H         59.75584        24.79264         0.02363
H         60.98527        26.95642        -0.01202
H         60.96515        29.35972        -0.42289
H         60.96575        31.27612        -0.19392
H         60.95592        33.68436        -0.42375
H         60.93170        35.53903        -1.01829
H         60.86452        37.93301        -1.31994
H         60.85409        39.82234        -1.35923
H         60.86402        42.24572        -1.26030
H         60.87345        44.14574        -1.18548
H         60.89774        46.57711        -0.80717
H         59.74936        48.66072        -0.15131
