         430
 CSIRO Nanostructure Databank - Neutral Graphene Oxide Data Set
C         27.85773        27.42078         0.24779
C         27.86106        28.82674         0.10873
C         26.64054        29.55722        -0.00144
C         27.86823        31.66677        -0.01784
C         26.64787        30.92907        -0.05348
C         27.87433        33.10760        -0.02063
C         26.66868        33.85593         0.00445
C         27.89149        35.96425         0.00232
C         26.67754        35.23569         0.02763
C         27.90700        37.41255         0.02775
C         26.70753        38.15532         0.22042
C         27.91471        40.26892         0.07927
C         26.71526        39.53086         0.25942
C         27.91344        41.70787         0.02395
C         26.70605        42.47571         0.18215
C         27.89225        44.58827        -0.10606
C         26.70186        43.84957         0.15617
C         27.95649        45.98391        -0.04800
C         30.28615        27.40417         0.41015
C         29.05146        26.73392         0.42091
C         30.32642        28.80998         0.23910
C         29.09935        29.53139         0.10970
C         30.34714        31.66599         0.01780
C         29.10317        30.95939         0.03273
C         30.35100        33.08796        -0.04074
C         29.11216        33.81071        -0.03736
C         30.35712        35.94843        -0.13410
C         29.11694        35.24159        -0.05208
C         30.36615        37.37658        -0.21459
C         29.12571        38.11235        -0.11936
C         30.35678        40.26518        -0.27825
C         29.13880        39.55394        -0.11771
C         30.36927        41.68158        -0.27801
C         29.12599        42.38318        -0.21650
C         30.45991        44.59587        -0.40241
C         29.10275        43.83165        -0.42980
C         30.42077        46.00924        -0.01857
C         29.18200        46.66804        -0.00418
C         32.77791        24.56977         0.16508
C         31.58631        25.22806         0.25422
C         32.81451        27.39481         0.40886
C         31.54792        26.64881         0.74739
C         32.81546        28.79953         0.28653
C         31.57618        29.52421         0.20828
C         32.82479        31.64396        -0.05074
C         31.58832        30.94125         0.05967
C         32.82888        33.08021        -0.14689
C         31.58822        33.79646        -0.10000
C         32.81750        35.92733        -0.28141
C         31.58584        35.22319        -0.17582
C         32.81750        37.35094        -0.37245
C         31.58971        38.06011        -0.35449
C         32.88644        40.20233        -0.27762
C         31.60538        39.52853        -0.69040
C         32.83886        41.61817         0.22758
C         31.61985        42.40129        -0.20701
C         32.89428        44.50349         0.10798
C         31.67233        43.79654        -0.15033
C         32.89241        45.91862         0.29099
C         31.66228        46.65582         0.31755
C         32.90109        48.69082         0.85416
C         31.70697        48.03652         0.64108
C         35.41325        23.48976        -0.75124
C         35.28207        24.43624         0.40909
C         34.02394        25.24815         0.32418
C         35.28390        27.37929         0.40692
C         34.04117        26.66788         0.38083
C         35.29027        28.79648         0.31420
C         34.06166        29.50699         0.19855
C         35.30260        31.60656        -0.15087
C         34.06936        30.92464        -0.00205
C         35.30075        33.03514        -0.62797
C         34.04471        33.79033        -0.27784
C         35.27817        35.94054        -0.40023
C         34.05431        35.20976        -0.30873
C         35.27162        37.33362        -0.53616
C         34.05663        38.05698        -0.49646
C         35.35797        40.18551        -0.18128
C         34.06682        39.50276        -0.32839
C         35.34872        41.64498         0.00310
C         34.13569        42.35959         0.03935
C         35.37022        44.48730         0.14949
C         34.13993        43.77903         0.11673
C         35.37796        45.91772         0.32413
C         34.13459        46.61524         0.47458
C         35.40022        48.71071         0.86666
C         34.14594        48.01199         0.74092
C         35.45025        50.09900         1.16284
C         37.82383        23.27240        -0.38165
C         36.62939        22.92805        -1.05845
C         37.82290        24.47174         0.55409
C         36.53965        25.26862         0.46888
C         37.77966        27.39572         0.87386
C         36.52150        26.63690         0.50246
C         37.76527        28.84545         0.44481
C         36.53986        29.51798         0.26475
C         37.78608        31.63620        -0.08469
C         36.53767        30.92606        -0.00481
C         37.77626        33.08205        -0.22095
C         36.57787        33.76524        -0.31298
C         37.81966        35.95476        -0.43303
C         36.55589        35.23864        -0.02602
C         37.81745        37.33748        -0.57660
C         36.53583        38.08324        -0.87542
C         37.81423        40.29330        -0.63501
C         36.53232        39.51541        -0.40117
C         37.83067        41.53894         0.24677
C         36.57103        42.34371         0.08346
C         37.85063        44.45216         0.12276
C         36.60443        43.75858         0.12941
C         37.84711        45.93490        -0.11990
C         36.59815        46.62342         0.36252
C         37.87915        48.72983         0.70865
C         36.62778        48.01725         0.64249
C         37.88640        50.11678         0.98606
C         36.64660        50.77669         1.21631
C         40.29784        20.54975        -1.20022
C         39.09089        21.23084        -1.05672
C         40.28379        23.17874        -0.16570
C         39.04455        22.54576        -0.53093
C         40.30966        24.57447         0.14536
C         39.06486        25.30027         0.33419
C         40.25494        27.43930         0.42997
C         39.04114        26.67362         0.45920
C         40.22491        28.82483         0.49768
C         38.98440        29.54751         0.36948
C         40.26548        31.68352         0.04192
C         39.00895        30.96085         0.11232
C         40.26679        33.09754        -0.20406
C         39.04086        33.80379        -0.25695
C         40.27952        35.90518        -0.67697
C         39.04480        35.21994        -0.42955
C         40.25968        37.32635        -0.73770
C         39.05978        38.04204        -0.61862
C         40.26934        40.15102        -0.17200
C         39.09472        39.49529        -0.45511
C         40.30084        41.60719        -0.02055
C         39.09862        42.32632         0.06801
C         40.32805        44.46214         0.07704
C         39.08485        43.74802         0.10484
C         40.33395        45.90311         0.17806
C         39.12950        46.61921         0.27337
C         40.35913        48.71827         0.63619
C         39.12999        48.02232         0.52878
C         40.36662        50.14168         0.87903
C         39.13941        50.84671         1.04345
C         40.38738        52.93070         1.29341
C         39.18386        52.24518         1.26005
C         42.78968        20.50071        -1.08265
C         41.51568        21.13889        -0.82098
C         42.74186        23.11485         0.01770
C         41.51232        22.47080        -0.29111
C         42.76721        24.50617         0.22169
C         41.53935        25.24035         0.22979
C         42.75402        27.37660         0.79957
C         41.55919        26.74221         0.12311
C         42.77525        28.88224         0.83926
C         41.46608        29.61272         0.68020
C         42.74103        31.71082         0.19966
C         41.49532        31.02745         0.27129
C         42.77188        33.08555        -0.19244
C         41.51436        33.79236        -0.39298
C         42.76406        35.84844        -1.09056
C         41.49928        35.15762        -0.73158
C         42.78386        37.35327        -1.07361
C         41.49454        38.16184        -1.00295
C         42.82413        40.12560        -0.21868
C         41.54891        39.33414        -0.02555
C         42.79613        41.56816         0.09725
C         41.53130        42.31880         0.02452
C         42.80104        44.47048        -0.07917
C         41.54839        43.73729         0.05793
C         42.79578        45.92188        -0.05209
C         41.58437        46.61149         0.18800
C         42.83372        48.71571         0.39585
C         41.59687        48.02364         0.41174
C         42.91998        50.13842         0.88298
C         41.58993        50.85182         0.92641
C         42.88664        52.94842         1.11509
C         41.60682        52.24110         1.11966
C         43.96117        21.05896        -0.69753
C         45.28217        23.07413         0.14006
C         43.98904        22.28072         0.19249
C         45.25908        24.50525         0.28189
C         44.03656        25.18302         0.35879
C         45.28744        27.36538         0.47790
C         44.02773        26.61345         0.73037
C         45.26758        28.86099         0.38716
C         44.01080        29.60951         0.54831
C         45.24656        31.70560         0.24929
C         43.99542        30.99686         0.35902
C         45.24458        33.08422        -0.07551
C         44.01295        33.74536        -0.33872
C         45.28679        35.89499        -0.69948
C         44.07838        35.06091        -1.07870
C         45.24119        37.32199        -0.66279
C         44.05538        38.04787        -0.75863
C         45.28780        40.20991        -0.50004
C         44.01829        39.47709        -0.47781
C         45.31188        41.63259        -0.42888
C         44.07685        42.35402        -0.05972
C         45.21594        44.50459        -0.79666
C         43.99379        43.80071        -0.26742
C         45.24441        45.97396        -0.46145
C         44.02308        46.64439        -0.16620
C         45.27360        48.79854        -0.06589
C         44.03038        48.05747         0.06331
C         45.28097        50.21487         0.02245
C         43.95407        50.95284         0.10126
C         44.01112        52.35831         0.66706
C         47.72608        23.10871         0.27217
C         46.49765        22.41431         0.15909
C         47.77644        24.49015         0.41727
C         46.52512        25.22567         0.44062
C         47.78597        27.34285         0.83973
C         46.54017        26.60086         0.62771
C         47.77461        28.87675         0.78611
C         46.51753        29.62231         0.53787
C         47.76787        31.77315         0.68435
C         46.49256        30.99359         0.45216
C         47.73811        33.15572         0.05038
C         46.50660        33.80244        -0.20871
C         47.76494        35.93228        -0.56570
C         46.50219        35.20915        -0.48681
C         47.74784        37.31438        -0.64227
C         46.49973        38.04577        -0.23195
C         47.73250        40.23390        -0.62398
C         46.50251        39.51780        -0.56954
C         47.75387        41.66421        -0.58874
C         46.50986        42.34152        -0.49276
C         47.75098        44.47938        -0.91095
C         46.50431        43.83313        -0.28430
C         47.71237        45.98135        -0.74717
C         46.46824        46.66744        -0.51572
C         47.69396        48.81821        -0.55802
C         46.48094        48.10087        -0.35424
C         47.67726        50.21630        -0.41261
C         46.48953        50.89803        -0.14473
C         50.29156        24.55683         0.39590
C         49.04076        25.22112         0.48236
C         50.26596        27.36540         0.54507
C         49.05480        26.62997         0.61028
C         50.24570        28.80925         0.42039
C         49.03059        29.54942         0.45261
C         50.18902        31.65889         0.08200
C         49.02137        30.98227         0.33262
C         50.23323        33.14851         0.33237
C         48.95950        33.83895        -0.10111
C         50.26889        35.90462        -0.44831
C         49.01960        35.20772        -0.46383
C         50.31480        37.34047        -0.72825
C         48.96782        38.08005        -0.86436
C         50.18539        40.21522        -0.51723
C         48.96898        39.52912        -0.65610
C         50.19465        41.65369        -0.54391
C         49.00435        42.36786        -0.57364
C         50.26788        44.55846        -1.00388
C         49.05788        43.87544        -0.35915
C         50.13275        45.90931        -1.30392
C         48.90171        46.65938        -0.97005
C         49.98783        48.79055        -1.50133
C         48.89779        48.10806        -0.97960
C         51.48242        25.25694         0.42361
C         52.75338        27.41441         0.42919
C         51.51067        26.67477         0.46961
C         52.72103        28.83491         0.25097
C         51.46452        29.48595         0.17967
C         52.69418        31.64905        -0.19552
C         51.40782        30.88325        -0.34590
C         52.55096        33.01083        -0.54763
C         51.45803        33.81161        -0.23488
C         52.72703        36.01483        -0.00891
C         51.51536        35.23990        -0.28898
C         52.61571        37.39675         0.21866
C         51.46425        38.11902        -0.22769
C         52.43882        40.33908         0.52766
C         51.39392        39.51232        -0.19016
C         52.58180        41.72158        -0.07039
C         51.46907        42.35530        -0.56486
C         52.86846        44.37096        -1.09601
C         51.51248        43.69157        -1.29153
C         53.15401        45.55026        -1.77345
C         51.14125        46.71036        -1.97156
C         51.07729        48.08229        -2.06306
C         55.18459        27.49159         0.54496
C         54.01112        26.76725         0.54371
C         55.17442        28.90773         0.41148
C         53.95070        29.59385         0.21280
C         55.17659        31.77239         0.30088
C         53.94755        31.03451         0.04589
C         55.24918        33.20831         0.47632
C         54.29225        34.07759        -0.10293
C         55.02691        36.03350         1.07678
C         53.98514        35.36834         0.34435
C         54.96182        37.44130         1.21972
C         53.63672        38.13791         1.05933
C         54.91374        40.30830         0.92739
C         53.74317        39.60778         0.72187
C         54.97347        41.74651         0.62086
C         53.85667        42.39483         0.05536
C         55.21016        44.42299        -0.30005
C         53.95880        43.74193        -0.41664
C         55.39611        45.69072        -0.91140
C         54.39091        46.22915        -1.68645
C         56.38946        29.65028         0.51946
C         56.37003        31.02312         0.52446
C         56.21561        33.87651         1.29455
C         56.14358        35.23894         1.50606
C         56.09790        38.23036         1.52570
C         56.08863        39.60082         1.37815
C         56.17139        42.48599         0.81696
C         56.28586        43.78657         0.37885
O         49.77006        37.69262        -2.03509
O         52.19825        46.09660        -2.65232
O         45.25268        28.00661        -0.86989
O         43.60413        41.93382         1.29082
O         47.78348        28.15952         2.07440
O         42.73596        36.61611        -2.35938
O         29.78036        44.27457        -1.64837
O         43.29932        26.79877         2.01070
O         42.06339        29.40343         2.01975
O         53.61398        33.61251        -1.23594
O         51.25346        30.71557        -1.82229
H         52.02769        30.20082        -2.13697
O         37.80168        46.07752        -1.60460
H         37.77635        47.03940        -1.79785
O         41.80482        27.01788        -1.30603
H         41.08998        26.58937        -1.82289
O         43.93226        21.75939         1.57229
H         43.06087        21.32271         1.68358
O         47.85405        32.01511         2.13577
H         47.02219        32.45260         2.41697
O         44.32075        34.63988        -2.46189
H         44.02372        35.38769        -3.03167
O         36.53785        38.19315        -2.35776
H         35.64547        38.50370        -2.62608
O         47.79344        44.17778        -2.32203
H         46.89442        44.33936        -2.69719
O         37.90427        23.95277         1.92111
H         37.03707        23.49893         2.07955
O         41.59303        38.78372         1.31934
H         41.60497        39.53227         1.95241
O         51.41216        43.35736        -2.70993
H         51.48722        44.20184        -3.20927
O         32.68576        41.48350         1.69943
H         32.72923        42.38746         2.07858
O         35.27178        32.94932        -2.11667
H         36.05958        32.43180        -2.39017
O         41.32802        38.77237        -2.30728
H         41.52466        38.07342        -2.97142
O         36.55583        35.31475         1.45855
H         37.37576        34.87574         1.77252
O         46.53069        44.07564         1.15106
H         45.76876        43.60293         1.55181
O         49.20053        44.11543         1.05852
H         48.31356        43.99215         1.47615
O         45.15616        44.36710        -2.25823
H         44.37778        44.87532        -2.57081
O         46.50409        38.00331         1.24572
H         45.71545        38.50038         1.55318
O         43.46609        51.05175        -1.26662
H         44.12074        51.56330        -1.78562
O         37.83455        41.04475         1.62647
H         37.79630        41.82024         2.22444
O         43.41245        50.06976         2.25593
H         42.76668        49.55386         2.78216
O         51.89761        40.52753         1.88240
H         51.97467        39.64856         2.33257
O         37.79431        27.41317         2.34098
H         37.98253        26.49643         2.63966
O         35.21260        23.62723         1.66118
H         34.87206        24.21713         2.36721
O         31.60486        39.57702        -2.17599
H         30.76057        39.17921        -2.47897
O         37.77334        40.71477        -2.02155
H         37.62736        39.90060        -2.55908
O         53.03089        38.09997         2.43876
H         53.74283        38.35903         3.06396
O         50.31152        33.30642         1.78924
H         49.49806        32.88504         2.16992
O         31.53382        26.55138         2.23253
H         32.36094        26.09276         2.49329
H         26.90038        26.88047         0.25790
H         25.68929        29.00621        -0.02303
H         25.68887        31.45885        -0.12268
H         25.69939        33.34115         0.01864
H         25.71519        35.76312         0.05192
H         25.75259        37.63280         0.36063
H         25.76483        40.05599         0.42049
H         25.75849        41.95530         0.37304
H         25.76649        44.39903         0.33741
H         27.02695        46.55518         0.09083
H         29.01765        25.64887         0.58710
H         29.14683        47.75306         0.16423
H         32.79254        23.49026        -0.04784
H         30.65015        24.66873         0.12184
H         32.87510        49.76355         1.08519
H         30.77458        48.61254         0.70650
H         34.53761        23.27831        -1.38170
H         34.52414        50.65652         1.35378
H         36.67525        22.18389        -1.86883
H         36.62997        51.84898         1.44978
H         40.30200        19.53579        -1.62638
H         38.15658        20.73322        -1.35226
H         40.39633        54.01917         1.44851
H         38.25441        52.81402         1.39356
H         42.78611        19.55650        -1.64886
H         42.90069        53.99414         1.45917
H         44.90780        20.54657        -0.92389
H         44.94980        52.93102         0.63441
H         48.65063        22.51607         0.25793
H         46.52752        21.31705         0.10552
H         48.60072        50.79904        -0.53007
H         46.52064        51.99476        -0.07885
H         50.32921        23.46232         0.31595
H         49.99074        49.88669        -1.56298
H         52.42200        24.69150         0.36346
H         51.87536        48.62625        -2.58419
H         56.14823        26.97834         0.67553
H         54.06000        25.67789         0.67340
H         56.36374        46.20245        -0.81118
H         54.52912        47.17183        -2.23142
H         57.33611        29.10751         0.65316
H         57.31483        31.56763         0.66141
H         57.03138        33.30634         1.76108
H         56.92654        35.71603         2.11217
H         57.04247        37.73315         1.79010
H         57.01757        40.15148         1.57201
H         57.03622        42.01835         1.30509
H         57.23183        44.33211         0.50697
