         640
 CSIRO Nanostructure Databank - Neutral Graphene Oxide Data Set
C         23.00829        27.71342        -0.83979
C         22.97464        29.01449        -0.46916
C         23.23893        31.29301         1.41670
C         23.33860        32.38490         2.32935
C         23.34500        36.14993         3.00525
C         23.23992        37.43191         2.51157
C         23.09797        40.18578         1.53700
C         23.06684        41.52131         1.25215
C         23.13615        44.44934         1.26743
C         23.09496        45.79439         1.11258
C         25.36731        24.79818        -1.02567
C         24.21138        25.56746        -1.14399
C         25.47454        27.55719        -0.53541
C         24.24250        26.94942        -0.88028
C         25.53184        29.01275        -0.33237
C         24.22086        29.77945        -0.27857
C         25.52177        31.83566         0.47257
C         24.25493        31.00501         0.55118
C         25.58290        32.97961         1.46958
C         24.47142        33.17838         2.33113
C         25.65475        35.94308         2.16527
C         24.54010        35.41730         2.81512
C         25.60143        37.34669         1.83450
C         24.36918        38.07119         1.92929
C         25.52047        40.11554         1.15170
C         24.32715        39.44775         1.53041
C         25.49833        41.50928         0.80281
C         24.25385        42.24623         0.89867
C         25.36256        44.34444         0.15710
C         24.21849        43.64477         0.74812
C         25.43810        45.80570         0.23598
C         24.11863        46.53410         0.28621
C         25.46027        48.59604         0.62200
C         24.26721        47.96495         0.69830
C         27.85133        23.17263        -0.89157
C         27.82610        24.57053        -0.32892
C         26.58075        25.38035        -0.64128
C         27.91227        27.40899        -0.04687
C         26.64293        26.77284        -0.38969
C         27.91076        28.75457         0.63722
C         26.72662        29.62920         0.29595
C         28.01194        31.63365         0.91911
C         26.75766        30.95760         0.61085
C         28.01413        33.03073         1.15856
C         26.78561        33.72941         1.50999
C         28.04025        35.84310         1.58834
C         26.85042        35.14839         1.82172
C         28.09093        37.33983         1.82715
C         26.79275        38.03705         1.50965
C         27.99822        40.12472         0.95451
C         26.77088        39.41186         1.19562
C         27.96979        41.50398         0.64480
C         26.71195        42.17388         0.52800
C         27.94434        44.34383         0.08259
C         26.70061        43.56413         0.06657
C         27.91485        45.75609        -0.00585
C         26.65243        46.47928         0.11366
C         27.89732        48.62195         0.08180
C         26.67893        47.91428         0.24537
C         27.93882        50.04832         0.12745
C         30.29441        23.19852        -1.19922
C         29.01149        22.56232        -1.26481
C         30.36424        24.55495        -0.54381
C         29.06738        25.34172        -0.82465
C         30.37500        27.40784        -0.11666
C         29.09950        26.74494        -0.25287
C         30.41158        28.80079         0.24938
C         29.21613        29.50441         0.52409
C         30.49135        31.60199         0.79588
C         29.23524        30.89950         0.77649
C         30.49933        33.02973         0.97948
C         29.26271        33.73534         1.17073
C         30.48993        35.87210         1.16865
C         29.26446        35.14928         1.30705
C         30.49133        37.30659         1.09246
C         29.28567        38.02951         1.22795
C         30.45685        40.11888         0.65156
C         29.24897        39.41422         0.95923
C         30.43526        41.52658         0.42136
C         29.19463        42.22609         0.40723
C         30.40429        44.35814         0.03752
C         29.17642        43.63910         0.18695
C         30.38733        45.76952        -0.16406
C         29.13602        46.48052        -0.12692
C         30.32905        48.64378        -0.35393
C         29.12578        47.91436        -0.15404
C         30.33842        50.04598        -0.29829
C         29.11484        50.73226        -0.04156
C         32.72757        20.48032        -1.93899
C         31.53778        21.15882        -1.87423
C         32.74336        23.28436        -1.55421
C         31.49708        22.55431        -1.55367
C         32.73055        24.72682        -1.38486
C         31.58999        25.35827        -0.91472
C         32.79444        27.47593        -0.50233
C         31.56181        26.75171        -0.51709
C         32.86044        28.80713        -0.02479
C         31.66893        29.49439         0.29687
C         32.95465        31.61854         0.52408
C         31.69697        30.90213         0.57954
C         32.96675        33.03279         0.73531
C         31.72480        33.73384         0.96566
C         32.94071        35.88677         0.98006
C         31.72138        35.16810         1.04875
C         32.94323        37.28651         0.82450
C         31.70577        38.00288         0.82222
C         32.91916        40.11318         0.38369
C         31.69616        39.41431         0.62992
C         32.90272        41.52952         0.17369
C         31.66541        42.23234         0.20353
C         32.86298        44.36581        -0.15411
C         31.64460        43.65260         0.03760
C         32.84162        45.78895        -0.33357
C         31.61262        46.46865        -0.35304
C         32.85227        48.66496        -0.47026
C         31.57746        47.91527        -0.78248
C         32.83373        50.08217        -0.43795
C         31.58539        50.78851        -0.43556
C         32.80661        52.89874        -0.47084
C         31.60618        52.18772        -0.48749
C         35.16234        19.03944        -1.16829
C         35.18154        20.37716        -1.51812
C         33.97238        21.14921        -1.73559
C         35.23279        23.30669        -1.46220
C         33.95866        22.56743        -1.65607
C         35.26406        24.80764        -1.56643
C         33.92820        25.55264        -1.84297
C         34.95152        27.82615        -1.47485
C         33.91853        26.93338        -1.19671
C         35.27903        28.98151        -0.74494
C         34.20733        29.45412         0.20900
C         35.39581        31.64669         0.13450
C         34.16351        30.95355         0.24887
C         35.41447        33.05119         0.42742
C         34.19727        33.71841         0.72355
C         35.45111        35.89060         0.81772
C         34.22273        35.14103         1.21847
C         35.44279        37.30933         0.73671
C         34.16628        38.01674         0.64016
C         35.44727        40.04350         0.00152
C         34.14393        39.38710         0.39102
C         35.39661        41.55217        -0.05729
C         34.12482        42.24972        -0.06420
C         35.31123        44.38160        -0.60565
C         34.08789        43.64437        -0.24056
C         35.31870        45.85356        -0.48782
C         34.09438        46.52719        -0.43644
C         35.31699        48.68908        -0.41173
C         34.07581        47.96880        -0.43372
C         35.30543        50.10993        -0.39006
C         34.06504        50.81298        -0.39454
C         35.29493        52.97973        -0.29251
C         34.04400        52.24244        -0.38774
C         35.32723        54.37599        -0.18966
C         37.59006        18.94881        -0.77132
C         36.34964        18.33983        -0.81506
C         37.72112        20.33576        -1.13601
C         36.49678        21.04901        -1.59774
C         37.79654        23.24184        -1.19112
C         36.51990        22.54655        -1.63914
C         37.88107        24.62741        -1.83819
C         36.60818        25.44781        -1.73405
C         37.92100        27.54888        -1.50640
C         36.78620        26.78824        -1.96564
C         37.80825        28.91828        -1.09353
C         36.55633        29.60535        -0.75602
C         37.84476        31.66643        -0.16711
C         36.61441        30.95908        -0.23303
C         37.87446        33.05770         0.22337
C         36.66598        33.75217         0.46927
C         37.89217        35.87349         0.90263
C         36.68810        35.18241         0.73184
C         37.84327        37.31502         1.37362
C         36.63764        38.01891         0.81554
C         37.92302        40.12954         0.44373
C         36.60217        39.51932         0.87196
C         37.87277        41.47065        -0.15343
C         36.59072        42.21421        -0.20109
C         37.87672        44.42717        -0.41148
C         36.63407        43.63989        -0.58040
C         37.82174        45.85071        -0.45369
C         36.56568        46.55773        -0.48809
C         37.79425        48.71373        -0.42966
C         36.56048        47.98032        -0.43799
C         37.78065        50.14004        -0.37476
C         36.54458        50.84004        -0.35759
C         37.76702        52.98010        -0.18603
C         36.53153        52.26264        -0.27940
C         37.75043        54.39306         0.03146
C         36.53323        55.06316         0.01160
C         40.03414        16.07506        -0.32049
C         38.85788        16.74919        -0.46406
C         40.09933        18.91739        -0.43027
C         38.78160        18.22641        -0.17282
C         40.14401        20.30331        -0.66682
C         38.93137        21.00860        -1.01404
C         40.28754        23.17095        -1.03118
C         39.06455        22.42602        -1.52543
C         40.29322        24.61096        -1.09570
C         39.12574        25.36155        -1.40363
C         40.33326        27.48907        -1.07979
C         39.12229        26.78413        -1.32528
C         40.27416        28.89432        -0.94186
C         39.04548        29.60116        -0.81703
C         40.31347        31.70297        -0.30149
C         39.07556        30.99488        -0.44495
C         40.34107        33.08472         0.10464
C         39.12566        33.73840         0.36764
C         40.47056        35.86418         0.97288
C         39.14288        35.11431         0.90365
C         40.47708        37.36368         1.08375
C         39.16082        38.10079         1.20469
C         40.38022        40.24330         0.59293
C         39.12546        39.51124         0.70588
C         40.37136        41.59200         0.32168
C         39.16749        42.27707        -0.17320
C         40.29669        44.51283        -0.12901
C         39.10281        43.76553        -0.20529
C         40.28823        45.90886        -0.32429
C         39.04250        46.59609        -0.42616
C         40.27857        48.75116        -0.47888
C         39.03616        48.02214        -0.45898
C         40.27205        50.16318        -0.45819
C         39.01882        50.87156        -0.38574
C         40.24187        53.05760        -0.63150
C         38.99684        52.27634        -0.30651
C         40.27057        54.44317        -0.05917
C         39.02421        55.06110         0.50963
C         40.21463        57.24614         0.33301
C         39.04871        56.56491         0.43425
C         42.48264        16.08422         0.24645
C         41.27796        16.76387        -0.13525
C         42.55475        18.87972        -0.28970
C         41.30790        18.18789        -0.30347
C         42.57796        20.27623        -0.30780
C         41.38631        21.00524        -0.56010
C         42.68688        23.13941        -0.45274
C         41.42872        22.45188        -0.67351
C         42.70810        24.57090        -0.54269
C         41.51709        25.30369        -0.81724
C         42.74639        27.42083        -0.61956
C         41.55521        26.74052        -0.89348
C         42.83867        28.85447        -0.86295
C         41.52662        29.64943        -0.97676
C         42.78571        31.70995        -0.40448
C         41.54791        31.05200        -0.56599
C         42.81256        33.12130        -0.13805
C         41.60390        33.80274         0.14058
C         42.83756        35.95115         0.17824
C         41.65925        35.20713         0.40054
C         42.85959        37.40383         0.33714
C         41.69908        38.09636         0.67813
C         42.90912        40.29913         0.44008
C         41.69706        39.58343         0.99816
C         42.89035        41.65442         0.26905
C         41.61550        42.38550         0.45303
C         42.82279        44.54794        -0.21878
C         41.58110        43.85569         0.18739
C         42.77425        45.90304        -0.49674
C         41.53113        46.63204        -0.43580
C         42.77851        48.76953        -0.55379
C         41.52545        48.03661        -0.52435
C         42.76986        50.18885        -0.45308
C         41.52068        50.89791        -0.43638
C         42.74948        53.02977        -0.36911
C         41.52576        52.30098        -0.40883
C         42.73158        54.46197        -0.27320
C         41.47561        55.14503        -0.05603
C         42.69130        57.26995         0.12848
C         41.47714        56.56630         0.16485
C         43.68740        16.72221         0.25574
C         45.09415        18.83342        -0.09850
C         43.82375        18.06911        -0.41001
C         45.10764        20.23349        -0.01265
C         43.81433        20.98599         0.19308
C         45.12617        23.11778        -0.06639
C         43.87496        22.44315        -0.17138
C         45.14702        24.54936        -0.10608
C         43.93123        25.24501        -0.26714
C         45.29077        27.44234        -0.09585
C         43.90532        26.69482        -0.12445
C         45.30685        28.87585        -0.42265
C         44.05382        29.59647        -0.51591
C         45.31902        31.66331        -0.12155
C         44.01612        30.97531        -0.43400
C         45.28656        33.15124        -0.33410
C         44.05545        33.84008        -0.18579
C         45.29192        35.96825        -0.24733
C         44.05605        35.26431        -0.11891
C         45.29558        37.40736        -0.14301
C         44.11247        38.09415         0.13992
C         45.34839        40.27672        -0.15557
C         44.21258        39.55300         0.52198
C         45.29400        41.65188        -0.28045
C         44.08680        42.40859        -0.05911
C         45.27997        44.55181        -0.49447
C         44.05758        43.80108        -0.27337
C         45.27756        45.90970        -0.71232
C         43.99042        46.62495        -1.02460
C         45.24141        48.78061        -0.58269
C         44.00922        48.08918        -0.66758
C         45.24477        50.20062        -0.47676
C         44.00559        50.90593        -0.44401
C         45.22210        53.07252        -0.43625
C         43.99194        52.33620        -0.40097
C         45.20188        54.49444        -0.39675
C         43.94324        55.19726        -0.26064
C         43.89466        56.60654        -0.07727
C         47.51798        18.79597         0.10567
C         46.31745        18.13057        -0.07567
C         47.56456        20.21038         0.15150
C         46.33792        20.94021         0.04920
C         47.59038        23.09643        -0.00838
C         46.35482        22.39078         0.02424
C         47.63195        24.49362        -0.09986
C         46.41196        25.25084        -0.12673
C         47.72705        27.30043        -0.81129
C         46.46976        26.64078        -0.29951
C         47.75753        28.80284        -0.58331
C         46.50616        29.52547        -0.59344
C         47.74770        31.72202        -0.70294
C         46.44439        31.00357        -0.90474
C         47.75875        33.09607        -0.58348
C         46.50191        33.83562        -0.45708
C         47.76639        35.96523        -0.45681
C         46.51019        35.26188        -0.41091
C         47.76643        37.39437        -0.46347
C         46.54816        38.11446        -0.32723
C         47.76881        40.20405        -0.75164
C         46.56132        39.53664        -0.42549
C         47.74530        41.65255        -0.99565
C         46.47421        42.39755        -0.75789
C         47.79462        44.55228        -0.79984
C         46.58119        43.82524        -0.28001
C         47.78009        45.94010        -0.80524
C         46.51675        46.66636        -0.71053
C         47.77096        48.77985        -0.27549
C         46.49377        48.04882        -0.61450
C         47.72433        50.26029        -0.54894
C         46.49308        50.93715        -0.50558
C         47.69015        53.10303        -0.56977
C         46.46903        52.37339        -0.51527
C         47.63486        54.52394        -0.55507
C         46.43506        55.19366        -0.46823
C         49.98083        20.28687         0.75958
C         48.81186        20.91161         0.31921
C         50.08703        23.10034         0.39601
C         48.89159        22.34279        -0.13664
C         50.10067        24.51114         0.28774
C         48.90063        25.21557        -0.06115
C         50.18250        27.31084        -0.18129
C         48.96169        26.59174        -0.30974
C         50.26839        28.72791        -0.72279
C         48.95132        29.47470        -0.61607
C         50.28899        31.67777        -0.70902
C         48.97505        30.93624        -0.84722
C         50.23221        33.13412        -0.48662
C         49.01567        33.82094        -0.52596
C         50.23663        35.96990        -0.49338
C         48.99433        35.25879        -0.48010
C         50.24567        37.39206        -0.58453
C         49.00847        38.09513        -0.59132
C         50.25147        40.19817        -0.95465
C         49.00602        39.51059        -0.75874
C         50.21755        41.63321        -1.29665
C         49.00574        42.41100        -1.04897
C         50.25743        44.54382        -1.13003
C         49.01157        43.80849        -1.03267
C         50.22014        45.96482        -1.05797
C         49.01739        46.67204        -0.94086
C         50.19021        48.84749        -0.93838
C         49.02311        48.11096        -0.79842
C         50.20075        50.27215        -0.78079
C         48.95351        50.97737        -0.64709
C         50.19117        53.08815        -0.69608
C         48.94432        52.40171        -0.64468
C         51.17255        20.99182         0.96018
C         52.47034        23.14506         1.06889
C         51.24717        22.40304         0.80532
C         52.48844        24.56282         0.93814
C         51.29387        25.25411         0.55563
C         52.45875        27.46171         0.89748
C         51.30497        26.66595         0.34310
C         52.58768        28.85051         0.34158
C         51.44826        29.52818        -0.17387
C         52.58018        31.70515         0.37872
C         51.45718        30.92011        -0.25207
C         52.67562        33.13732        -0.09686
C         51.47385        33.83839        -0.32569
C         52.70514        35.97542        -0.39585
C         51.46846        35.26453        -0.41524
C         52.71271        37.40390        -0.51464
C         51.48993        38.10391        -0.64117
C         52.74599        40.25518        -0.84517
C         51.47987        39.53119        -0.84345
C         52.77122        41.67163        -0.97993
C         51.54339        42.39691        -1.31908
C         52.74237        44.52840        -1.10370
C         51.49754        43.85167        -1.14778
C         52.72495        45.98108        -1.33912
C         51.50472        46.73063        -0.86388
C         52.74174        48.88226        -1.09614
C         51.44521        48.15659        -1.43754
C         52.69674        50.28884        -0.82590
C         51.43669        50.98488        -0.79004
C         51.38667        52.40898        -0.73888
C         54.86265        23.17452         1.57571
C         53.67556        22.48195         1.40187
C         54.92959        24.57722         1.43307
C         53.72518        25.29093         1.11994
C         54.96827        27.41910         1.12778
C         53.75449        26.69750         0.97470
C         55.02517        28.82847         0.88898
C         53.82915        29.54917         0.48662
C         55.12592        31.67007         0.24845
C         53.86490        30.93957         0.30544
C         55.14862        33.14451         0.19800
C         53.91113        33.83897        -0.09735
C         55.18689        35.97010        -0.38766
C         53.91593        35.24253        -0.30408
C         55.17218        37.43830        -0.35890
C         53.97156        38.12367        -0.48258
C         55.18867        40.29729        -0.45267
C         53.96075        39.56774        -0.61040
C         55.17815        41.72551        -0.51733
C         53.96613        42.41089        -0.80657
C         55.20070        44.59304        -0.86658
C         53.96050        43.84615        -0.96012
C         55.24213        45.97466        -1.07646
C         54.02292        46.73777        -1.38939
C         55.22517        48.94422        -1.06252
C         53.95439        48.20337        -1.15025
C         55.14021        50.34284        -0.63173
C         53.93088        50.96580        -0.53982
C         57.37944        24.66187         1.97737
C         56.16461        25.30548         1.63964
C         57.34786        27.46673         1.79202
C         56.16325        26.72461         1.50342
C         57.33864        28.88773         1.70935
C         56.22429        29.53685         1.16640
C         57.49163        31.75609         1.25074
C         56.36997        30.94425         0.74227
C         57.49437        33.16071         1.02374
C         56.34399        33.81585         0.42584
C         57.57630        36.05245         0.57924
C         56.46091        35.23734         0.04763
C         57.58565        37.45266         0.39711
C         56.51192        38.13766        -0.43828
C         57.55198        40.35439         0.21925
C         56.40413        39.62085        -0.17846
C         57.54428        41.78729         0.17862
C         56.37676        42.47495        -0.27866
C         57.53375        44.63978         0.00336
C         56.39108        43.88314        -0.44624
C         57.52667        46.03682        -0.09919
C         56.59304        46.66082        -1.09844
C         57.78012        48.86080        -0.56247
C         56.54771        48.19165        -1.05013
C         58.55752        25.38142         2.16445
C         59.79353        27.55437         2.17781
C         58.56641        26.78306         2.08648
C         59.78421        28.90665         2.19290
C         58.48209        29.66119         2.32706
C         59.62471        31.91177         2.37083
C         58.54726        31.12631         1.93573
C         59.65709        33.28189         2.12689
C         58.59900        33.94124         1.47132
C         59.66507        36.18560         1.80402
C         58.61475        35.39521         1.28874
C         59.69385        37.55443         1.60648
C         58.67119        38.21930         0.89017
C         59.84030        40.42233         1.07683
C         58.70999        39.66375         0.70741
C         59.84085        41.80633         1.02361
C         58.69677        42.53188         0.59370
C         59.77823        44.76495         1.01983
C         58.66487        43.96031         0.57668
C         59.71210        46.11962         1.07941
C         58.44356        46.85957         0.75957
C         58.67932        48.24302         0.21573
O         56.11349        31.08921        -0.69007
O         38.64685        41.63508        -1.38902
O         44.51368        27.17344         1.11538
O         41.62331        43.32924         1.58296
O         42.31491        29.30306        -2.16231
O         39.99332        37.87659         2.39728
O         39.93825        35.21720         2.16806
O         53.29363        46.33539        -2.63875
O         35.75887        27.51840        -2.57702
O         25.85092        43.78480        -1.10928
O         35.93840        43.90571        -1.85227
O         50.89719        41.94315        -2.56069
O         25.06181        29.82001        -1.48643
O         49.78640        31.27709        -2.05308
O         56.16160        35.44223        -1.38039
O         24.56617        34.12801         3.36239
O         35.23044        24.13383        -0.23614
O         56.07722        48.75048        -2.30988
O         46.84572        42.09926        -2.12464
O         36.63290        21.81305        -2.88670
O         40.17341        53.25609        -2.10707
H         40.24340        52.36874        -2.52068
O         31.50821        47.87779        -2.25940
H         32.29906        47.39130        -2.57657
O         51.31816        48.11176        -2.87422
H         52.08315        47.58796        -3.22014
O         25.56892        32.45065        -0.85141
H         25.47926        31.70712        -1.49677
O         30.46979        24.33082         0.90598
H         31.30227        23.83723         1.06648
O         37.77245        23.37864         0.23902
H         36.91042        23.80096         0.48047
O         47.74729        27.16360        -2.27289
H         48.63707        27.47108        -2.56864
O         27.83423        24.46562         1.11807
H         28.73543        24.16374         1.38685
O         51.68906        46.84396         0.58177
H         50.85233        47.18572         0.96384
O         43.94374        17.76685        -1.85291
H         43.12553        17.29467        -2.11854
O         43.86780        46.59922        -2.49724
H         43.95672        45.66539        -2.78452
O         28.93040        25.44942        -2.25997
H         29.69745        25.95256        -2.60539
O         41.85100        39.72218         2.45058
H         41.15711        39.14349         2.85949
O         28.26484        37.50008         3.28879
H         27.51077        37.04332         3.72007
O         27.72520        28.45278         2.07594
H         28.35848        27.73993         2.30778
O         56.95055        38.01853        -1.83732
H         56.86928        37.05895        -2.06710
O         45.61105        31.45456         1.29134
H         44.89563        31.87194         1.81515
O         43.64222        20.98743         1.66620
H         42.84891        21.52887         1.86753
O         49.12633        22.25376        -1.60169
H         49.97114        21.77122        -1.72898
O         46.12072        31.13618        -2.31535
H         46.85745        30.75315        -2.83626
O         47.87125        48.66898         1.20705
H         48.49819        49.36153         1.50763
O         39.26854        22.29339        -2.95237
H         38.39123        22.07421        -3.35498
O         46.77964        43.70685         1.16865
H         46.72370        44.60635         1.55522
O         57.73011        47.05557         2.04908
H         57.67233        46.17653         2.48131
O         57.15906        46.34228        -2.41690
H         56.70870        46.94155        -3.05619
O         23.60293        46.54175        -1.09769
H         23.72228        45.63603        -1.45680
O         58.18941        29.68706         3.77396
H         58.15280        28.75518         4.07873
O         52.25174        31.81929         1.82786
H         52.16729        30.90356         2.17425
O         37.97521        24.41410        -3.28335
H         38.32496        25.23284        -3.69287
O         34.31642        35.02927         2.70006
H         35.24807        34.81172         2.91963
O         33.80270        25.69856        -3.27876
H         34.47830        26.35866        -3.55990
O         35.76343        39.58809        -1.34750
H         35.18088        40.06212        -1.97703
O         44.55945        39.54403         1.95727
H         43.70342        39.55233         2.45762
O         37.59103        37.27311         2.82881
H         38.44999        37.00744         3.23842
O         36.36453        39.89887         2.25499
H         36.75369        39.19322         2.82406
O         38.56479        18.32079         1.29049
H         39.34798        17.91734         1.72257
O         50.49170        28.57347        -2.16576
H         50.46843        29.48968        -2.53969
O         52.07867        27.68027         2.32724
H         52.01825        26.79452         2.74649
O         34.64241        29.01285         1.55159
H         33.98041        29.34437         2.19500
O         39.06050        54.74078         1.96361
H         39.85520        55.18065         2.33525
H         22.06925        27.17253        -1.03037
H         22.01209        29.53211        -0.34630
H         22.34143        30.65838         1.45001
H         22.55211        32.55404         3.07465
H         22.50029        35.67012         3.51614
H         22.29234        37.97285         2.62877
H         22.15501        39.67426         1.77036
H         22.10164        42.04532         1.25868
H         22.33753        43.95234         1.83736
H         22.24944        46.36705         1.52211
H         25.30701        23.71888        -1.22027
H         23.25974        25.09126        -1.42040
H         25.50997        49.65918         0.89478
H         23.36575        48.51329         1.00952
H         26.91692        22.59401        -0.93176
H         27.01713        50.62107         0.29085
H         28.95373        21.53415        -1.65192
H         29.09937        51.82844         0.01363
H         32.71899        19.39845        -2.12866
H         30.60059        20.60030        -1.99647
H         32.76130        53.99514        -0.50694
H         30.66909        52.75764        -0.53456
H         34.20826        18.49970        -1.09264
H         34.39583        54.95731        -0.20041
H         36.24526        17.29121        -0.50433
H         36.48827        56.14783         0.17766
H         40.04987        14.97581        -0.38030
H         37.92799        16.18403        -0.62089
H         40.21835        58.34637         0.36461
H         38.11526        57.12147         0.59802
H         42.40718        15.03873         0.58313
H         42.68636        58.36054         0.26955
H         44.58857        16.18319         0.58143
H         44.82141        57.19471        -0.07823
H         48.45018        18.21608         0.14662
H         46.32082        17.03800        -0.19119
H         48.55996        55.11187        -0.61263
H         46.44760        56.29130        -0.46301
H         49.96837        19.21535         1.00603
H         50.21414        54.18570        -0.69418
H         52.04848        20.43051         1.31035
H         52.31767        52.98964        -0.77833
H         55.76682        22.60349         1.82528
H         53.69018        21.38974         1.51272
H         56.06598        50.89788        -0.42850
H         53.90745        52.02016        -0.23164
H         57.41591        23.56828         2.07082
H         57.97054        49.88197        -0.92537
H         59.49338        24.84600         2.38049
H         60.74743        27.00508         2.18551
H         60.73252        29.46176         2.23949
H         60.45445        31.44735         2.92115
H         60.52766        33.84829         2.48187
H         60.48226        35.72466         2.37324
H         60.53201        38.12363         2.02886
H         60.75352        39.91819         1.41995
H         60.75044        42.34145         1.32623
H         60.71217        44.26826         1.31864
H         60.57326        46.69973         1.44349
H         59.59600        48.76766         0.52523
