         276
 CSIRO Nanostructure Databank - Neutral Graphene Oxide Data Set
C        -11.37549         0.51323         0.08094
C        -10.08627         1.32898         0.24810
C         -8.72722         0.69149        -0.16797
C         -7.52808         1.35950         0.07186
C         -6.29111         0.71901        -0.39201
C         -5.05914         1.59534        -0.49545
C         -3.77476         0.78040        -0.73786
C         -2.48360         1.51593        -0.57547
C         -1.20219         0.76554        -0.74580
C          0.07093         1.55735        -0.76159
C          1.33905         0.84788        -1.12291
C          2.65486         1.60911        -1.05877
C          3.98679         0.84544        -1.21458
C          5.03861         1.43107        -0.24105
C          6.36406         0.74512        -0.28799
C          7.53618         1.27620         0.55199
C          8.85170         0.78359        -0.09182
C         10.06876         1.32101         0.69389
C         11.32937         0.60064         0.24362
C        -10.11921         2.71339        -0.43160
C         -9.19654         3.70034        -0.03709
C         -7.35092         2.67821         0.66383
C         -6.20749         3.42575         0.64410
C         -4.90743         2.65039         0.58808
C         -3.64883         3.45921         0.37220
C         -2.46651         2.85836         0.04309
C         -1.16989         3.47349         0.56882
C          0.12785         2.79406         0.07621
C          1.42462         3.53219         0.15837
C          2.64431         3.04607        -0.59992
C          3.97907         3.75679        -0.36365
C          5.00141         2.83620         0.28297
C          6.25960         3.55093         0.73245
C          7.56238         2.80681         0.75446
C          8.84322         3.55155         0.50394
C         10.03991         2.82697         0.46458
C         -8.71263         4.87750        -0.62725
C         -7.34118         5.52798        -0.34383
C         -6.37480         4.93612         0.78682
C         -5.00822         5.66665         0.64834
C         -3.73710         4.94768         0.17979
C         -2.48969         5.67974         0.70002
C         -1.15193         4.98614         0.39145
C          0.02779         5.65983         0.36464
C          1.33328         4.95462         0.72015
C          2.57196         5.80277         0.46581
C          3.87189         5.11108         0.30039
C          5.02928         5.80270         0.47225
C          6.29164         5.06140         0.66959
C          7.61364         5.77962         0.40738
C          8.80034         4.94153         0.22658
C         -7.43742         7.04796        -0.12341
C         -6.32562         7.79648         0.10957
C         -5.01477         7.11911         0.29348
C         -3.75105         7.84426        -0.12545
C         -2.48181         7.13910         0.20531
C         -1.20445         7.72755         0.73668
C          0.03238         7.14356         0.09307
C          1.25758         7.91841        -0.25910
C          2.55321         7.25892         0.10374
C          3.88197         7.90390        -0.29037
C          5.05818         7.31037         0.58971
C          6.35852         7.91416         0.08321
C          7.51656         7.19785        -0.03365
C         -6.25891         9.24045         0.35459
C         -5.09417         9.93291         0.33806
C         -3.80534         9.39033        -0.25888
C         -2.50875        10.01717         0.23523
C         -1.27813         9.86843        -0.46215
C         -0.00410        10.04906         0.15351
C          1.27737         9.49109        -0.44185
C          2.60629        10.06816         0.05127
C          3.79642         9.40999        -0.02698
C          5.10410        10.05383        -0.00418
C          6.27752         9.35940        -0.08761
C        -11.57402        -0.82173         0.22350
C        -10.51746        -1.80547        -0.04091
C         -8.62754        -0.69390        -0.56775
C         -7.53739        -1.49455        -0.26722
C         -6.25110        -0.80168        -0.33384
C         -4.95124        -1.44454         0.02600
C         -3.70867        -0.68775        -0.32894
C         -2.44421        -1.46807        -0.57778
C         -1.15348        -0.71691        -0.69076
C          0.16573        -1.35423        -0.51059
C          1.32300        -0.68972        -1.27091
C          2.57843        -1.42643        -0.78541
C          3.89870        -0.69019        -1.00720
C          5.03613        -1.39540        -0.75950
C          6.35069        -0.72183        -0.59920
C          7.52695        -1.50567        -0.03215
C          8.81342        -0.74113        -0.31351
C         10.11009        -1.50776        -0.31280
C         11.34611        -0.69822        -0.10746
C        -10.15465        -3.00163         0.49336
C         -8.92637        -3.75036         0.09859
C         -7.59218        -2.94411         0.21258
C         -6.24498        -3.62410        -0.12173
C         -4.96696        -2.93927         0.40420
C         -3.62980        -3.67159         0.03132
C         -2.36763        -2.94764        -0.41458
C         -0.94501        -3.54813        -0.26583
C          0.25853        -2.64488        -0.06540
C          1.14525        -3.60580        -0.85575
C          2.51961        -2.90760        -1.37328
C          3.80061        -3.64643        -0.86874
C          4.96326        -2.83004        -0.25170
C          6.27643        -3.63586        -0.49746
C          7.59354        -2.94189        -0.52132
C          8.86205        -3.68609        -0.21855
C         10.05261        -2.96122        -0.09650
C         -9.01804        -5.12237         0.15709
C         -7.98283        -6.06568        -0.27412
C         -6.15062        -4.87746        -0.62763
C         -5.02015        -5.78004        -0.29351
C         -3.67868        -5.12130        -0.30163
C         -2.59676        -5.95161        -0.96130
C         -0.78616        -4.82022         0.56207
C          0.07325        -5.76454         0.04287
C          1.24450        -5.11864        -0.62760
C          2.53779        -5.87417        -0.56627
C          3.82987        -5.10578        -0.55362
C          4.91363        -5.67174         0.36682
C          6.26800        -4.98491         0.15919
C          7.56731        -5.76169         0.30892
C          8.80730        -5.09099        -0.06962
C         -7.59624        -7.29804         0.14424
C         -6.38241        -8.04818        -0.45462
C         -5.06586        -7.26946        -0.20059
C         -3.73235        -7.98008        -0.23127
C         -2.54265        -7.33392        -0.39877
C         -1.19353        -8.04948        -0.39144
C         -0.03311        -7.24578         0.37053
C          1.23695        -8.02879         0.10338
C          2.52544        -7.32125        -0.10293
C          3.70304        -7.88473         0.68495
C          4.98728        -7.21447         0.15023
C          6.26670        -7.87838         0.62182
C          7.46337        -7.21695         0.57080
C         -6.20950        -9.41301         0.19040
C         -5.02996       -10.03328         0.34538
C         -3.72506        -9.49589        -0.19657
C         -2.46372       -10.02926         0.45503
C         -1.25791        -9.41086         0.30059
C         -0.00579       -10.04019         0.71973
C          1.22381        -9.41932         0.64096
C          2.50920       -10.07622         0.77840
C          3.70889        -9.40018         0.66111
C          5.00171       -10.01535         0.82219
C          6.17603        -9.30596         0.85657
O         -6.27975        -0.06360        -1.63058
O         -2.02499        -5.63609        -1.99127
O          6.93636        -3.38054        -1.75765
O         -2.57070         5.66559         2.12990
O         -0.27562        -3.80100        -1.61600
O          2.53033         2.73800        -2.00268
O         -4.18748        -0.72170         1.06361
O          9.39431        -1.12672        -1.57225
O         -3.38432        -4.66512         1.05105
O          2.58761         6.85951         1.50340
O         -5.21213        -6.45262         1.01081
O          4.54594         1.73236         1.10386
O          7.03710         5.62051         1.78455
O         -8.48229         3.35994         1.13499
O          4.16209         7.69119        -1.62389
O          0.42096         7.34855        -1.30563
O         -1.22449        -0.02435        -1.97806
O          1.05861         2.55921         1.18677
O         -9.73711        -1.32619        -1.11248
O          6.84386         3.11669         1.99320
O          4.28232        -4.62934        -1.84792
O         -2.89337         7.29559        -1.16902
O          6.71000         0.25762        -1.61772
O         -7.20366        -5.47536        -1.32188
O          6.96414        -4.92430         1.41950
O         -4.84297         6.65977         1.69982
O          4.80305        -2.72321         1.15500
O          0.53930         1.56816        -2.13007
O         -2.58424        -2.37074        -1.72779
O          1.93132        -8.10721        -1.18988
O         -3.16180         1.34897        -1.90488
O          1.81256        -5.72198        -1.82784
O          8.99904         1.42410        -1.37113
H          8.43786         0.93952        -2.02309
O          9.99616         1.09374         2.11614
H          9.04882         0.93060         2.36842
O         -6.59127         5.32114        -1.57100
H         -7.06157         5.75887        -2.31091
O          4.50835        -5.30628         1.69950
H          4.62809        -4.30073         1.75999
O          2.45943        -1.52517         0.65184
H          3.32085        -1.88484         1.03145
O         -6.92379         5.24405         2.06618
H         -6.38415         5.97849         2.44676
O          7.34214        -1.67045         1.38774
H          6.42243        -2.05018         1.53391
O          4.92857         7.72428         1.95959
H          5.58595         7.20904         2.47837
O          2.60096        -2.89672        -2.77672
H          2.83575        -3.80822        -3.06384
O         -5.00651        -2.97960         1.84987
H         -4.53311        -2.18221         2.18442
O         -0.82314        -8.25932        -1.75967
H         -0.72007        -7.37892        -2.18889
O         -4.73914         1.97573         1.85870
H         -4.45251         2.63473         2.52594
O        -10.07960         1.44221         1.68645
H         -9.48975         2.19326         1.94091
O         -0.26836        -7.44477         1.77925
H         -0.82231        -6.70612         2.11872
O          5.03445        -7.42502        -1.28140
H          4.12711        -7.48491        -1.65295
O          1.31841         9.73154        -1.85178
H          0.67084         9.12937        -2.28442
O         -6.57857        -8.21302        -1.86705
H         -6.86962        -7.34753        -2.22998
O          1.25691         4.79175         2.16178
H          1.55127         5.64273         2.56291
O         -1.14625         8.10208         1.91164
H         -1.99049         6.37240         2.49531
O         -1.29735         9.47969        -1.75617
H         -2.23186         9.28335        -2.02898
O          4.59041         4.05715        -1.64529
H          4.08834         3.55216        -2.33621
O          1.15848        -0.94703        -2.66347
H          0.32812        -0.49548        -2.94773
O         -3.65635        -9.90724        -1.59772
H         -2.78870        -9.60577        -1.95003
O         -3.76565         5.01901        -1.26725
H         -4.42029         4.35800        -1.59907
O         -1.25023         3.22111         1.99245
H         -0.35075         3.40505         2.36120
O         -1.17906        -4.92330         1.86478
H         -1.94877        -4.35444         2.08235
O         -3.93619         9.63603        -1.69355
H         -4.10171        10.59355        -1.82217
O         -7.61289        -2.78583         1.67059
H         -6.71548        -2.99034         2.03936
O          4.46395         1.10872        -2.54197
H          3.85205         0.68615        -3.18081
O          3.47165        -7.62107         2.08513
H          3.75143        -6.70001         2.30911
O          7.40703         0.71339         1.86818
H          6.77574         1.28984         2.36535
O         -5.30686         2.40056        -1.67426
H         -5.37368         1.78796        -2.44024
H         12.30821        -1.18968        -0.32384
H         12.28523         1.13830         0.34647
H         10.98434         3.37335         0.30594
H          9.72287         5.42404        -0.13426
H          8.43739         7.69165        -0.38242
H          7.22161         9.91425        -0.20518
H          5.13065        11.15462        -0.04025
H          2.62215        11.15745         0.22192
H         -0.00030        10.34859         1.21320
H         -2.45541        10.28510         1.30148
H         -5.11573        11.00798         0.57743
H         -7.18992         9.76013         0.63156
H         -8.42128         7.53750        -0.20477
H         -9.19891         5.23951        -1.54982
H        -10.67620         2.83123        -1.37394
H        -12.26858         1.14776         0.21486
H        -12.60144        -1.18192         0.40199
H        -10.79856        -3.46618         1.25661
H         -9.99582        -5.55057         0.43737
H         -8.14964        -7.78565         0.96045
H         -7.12196        -9.90286         0.56747
H         -5.00431       -11.02447         0.82606
H         -2.51002       -11.02118         0.93363
H         -0.06449       -11.08577         1.06389
H          2.52157       -11.16812         0.93093
H          5.03947       -11.10701         0.96374
H          7.11698        -9.84586         1.04491
H          8.39813        -7.76391         0.77236
H          9.74147        -5.67533        -0.10024
H         10.97252        -3.48475         0.20850
