         286
 CSIRO Nanostructure Databank - Neutral Graphene Oxide Data Set
C        -11.15917         0.72548         0.72514
C        -10.13079         1.40130        -0.15879
C         -8.80079         0.72078         0.14111
C         -7.52520         1.45228        -0.05681
C         -6.23459         0.69503        -0.23942
C         -5.02191         1.43596        -0.69160
C         -3.72774         0.62880        -0.65519
C         -2.48840         1.39361        -1.09030
C         -1.26410         0.70090        -1.19496
C         -0.03625         1.39605        -1.07168
C          1.22450         0.64744        -0.99203
C          2.54731         1.33181        -0.60603
C          3.72077         0.66356        -1.35818
C          5.03007         1.44423        -1.12578
C          6.30150         0.70449        -0.79060
C          7.52212         1.41496        -0.18886
C          8.69654         0.56828        -0.58749
C         10.43298         1.72201        -0.16212
C         11.42521         0.74575         0.27383
C        -10.01327         2.89998         0.00518
C         -8.88379         3.55295        -0.33913
C         -7.68973         2.74323        -0.85566
C         -6.36710         3.52610        -1.01408
C         -5.06725         2.76973        -0.97759
C         -3.79451         3.53099        -1.18598
C         -2.49711         2.80166        -1.01614
C         -1.27137         3.49754        -0.86756
C         -0.05975         2.78894        -0.81694
C          1.17677         3.38868        -0.17323
C          2.46429         2.86538        -0.84415
C          3.74700         3.61698        -0.43161
C          5.01514         2.91061        -0.76197
C          6.27761         3.36477        -0.07211
C          7.63077         2.89042        -0.64945
C          8.82047         3.65468        -0.05467
C         10.04592         2.95449         0.32999
C         -8.88407         5.06288        -0.50369
C         -7.54347         5.67833        -0.17226
C         -6.35280         5.01904        -0.77485
C         -5.07609         5.85847        -0.84658
C         -3.80011         5.03334        -1.07940
C         -2.52508         5.73290        -0.66432
C         -1.26048         4.96454        -0.57406
C          0.06323         5.68533        -0.78188
C          1.17605         4.92735        -0.04883
C          2.47163         5.62759         0.22291
C          3.76770         4.92110        -0.02395
C          4.88982         5.93321        -0.38445
C          6.30793         5.47233        -0.82597
C          7.50973         5.83971        -0.00357
C          8.68699         5.01055         0.18070
C         -7.43506         6.79456         0.58389
C         -6.12157         7.36667         0.97589
C         -4.89030         6.81339         0.31889
C         -3.61750         7.62295         0.30958
C         -2.57124         7.26136        -0.76871
C         -1.23609         7.99694        -0.51565
C          0.07128         7.21911        -0.51375
C          1.28682         7.91503         0.04510
C          2.48562         7.12330         0.45810
C          3.74178         7.84730         0.82667
C          5.00660         7.16297         0.49385
C          6.19811         7.86134         0.54203
C          7.45465         7.13907         0.45628
C         -6.05020         8.74884         1.50269
C         -4.93658         9.50989         1.45680
C         -3.64174         9.03189         0.92817
C         -2.58982         9.92493         0.51760
C         -1.28540         9.37474         0.08737
C         -0.06110        10.07022         0.67313
C          1.25979         9.33376         0.52098
C          2.40814         9.99735         0.79523
C          3.74298         9.35058         1.12409
C          5.01479        10.02274         0.67711
C          6.16962         9.32042         0.63897
C        -11.12558        -0.60012         0.93420
C        -10.15883        -1.50689         0.18300
C         -8.85868        -0.74522        -0.14416
C         -7.61000        -1.48224        -0.45448
C         -6.27950        -0.79281        -0.37960
C         -5.21388        -1.53827        -1.16495
C         -3.87206        -0.77344        -1.30392
C         -2.58571        -1.51146        -1.55945
C         -1.23980        -0.71822        -1.72913
C          0.02610        -1.51133        -1.39477
C          1.24685        -0.71355        -1.12478
C          2.44945        -1.41209        -0.58091
C          3.78179        -0.80385        -0.90249
C          5.03877        -1.52146        -0.52123
C          6.32903        -0.75606        -0.49523
C          7.50338        -1.36811         0.29461
C          8.80003        -0.70608        -0.14095
C         10.07710        -1.41543        -0.07261
C         11.29637        -0.61529         0.12468
C         -9.83986        -2.76690         0.93887
C         -8.47158        -3.35504         0.96002
C         -7.65429        -2.99641        -0.31262
C         -6.27325        -3.63942        -0.24778
C         -5.11203        -2.98664        -0.70955
C         -3.87245        -3.73508        -0.99838
C         -2.54548        -3.05851        -1.51409
C         -1.33753        -3.59189        -0.65036
C          0.00368        -2.97613        -1.06390
C          1.28005        -3.68307        -0.63026
C          2.42126        -2.84417        -0.16654
C          3.68781        -3.52480         0.34655
C          4.99440        -2.79852         0.27524
C          6.29889        -3.58081         0.53434
C          7.55528        -2.86971        -0.02772
C          8.83634        -3.55163         0.50320
C         10.08721        -2.78385         0.08187
C         -8.59740        -4.84816         1.05041
C         -7.48003        -5.63546         0.71039
C         -6.26649        -4.95487         0.26168
C         -4.99003        -5.64224         0.40198
C         -3.82227        -5.13025        -0.39564
C         -2.50302        -5.74555         0.04808
C         -1.25426        -5.16087        -0.67350
C         -0.01371        -5.77241         0.05890
C          1.30406        -5.13343        -0.30882
C          2.47635        -5.79762         0.33139
C          3.74779        -5.03294         0.65121
C          4.96679        -5.71088         0.01735
C          6.26659        -4.98362        -0.04923
C          7.57655        -5.70331        -0.02904
C          8.74342        -5.04169         0.17258
C         -7.47713        -7.03500         0.92961
C         -6.22916        -7.76932         1.36194
C         -4.95216        -7.06612         0.89665
C         -3.86256        -7.97046         0.31991
C         -2.55937        -7.26355        -0.07048
C         -1.27501        -8.02485        -0.04943
C          0.07686        -7.31452        -0.18522
C          1.14893        -7.91095         0.76714
C          2.45827        -7.13557         0.58459
C          3.75824        -7.82617         0.77188
C          4.95495        -7.23495         0.01543
C          6.29388        -7.82918         0.53066
C          7.50754        -7.21880        -0.22018
C         -6.13505        -9.27259         1.19710
C         -4.95614        -9.91433         1.28177
C         -3.64263        -9.14209         1.30846
C         -2.39069        -9.95849         1.00714
C         -1.27073        -9.42183         0.47281
C          0.01896       -10.18281         0.19030
C          1.28258        -9.41532         0.56012
C          2.47330       -10.03938         0.70318
C          3.76593        -9.32383         0.86731
C          5.04027       -10.00355         0.49920
C          6.20305        -9.33861         0.37105
O         -8.09577         1.29488         1.28266
O         -8.43874        -0.98585        -1.54002
O         -2.40863        -5.41768         1.44561
H         -2.28612        -6.22518         1.98788
O          6.48109        -7.49471         1.91897
H          5.70368        -7.86303         2.40923
O          4.18869        -2.73865         1.47539
O         -4.11327        -4.97764        -1.78702
O         -1.59894        -3.11400         0.67607
H         -1.24260        -3.76254         1.33174
O         -6.36004        -7.56016         2.80557
H         -5.83063        -6.75230         3.01883
O          6.44385         5.16000        -2.01419
O          2.87941         1.06487         0.76570
H          2.16390         1.45917         1.32740
O         -5.94491        -0.22296         0.90265
O          5.20162         2.47694        -2.13989
O         -6.54694         4.46210        -2.11438
O          7.59653        -3.06176        -1.44947
H          6.98586        -2.44375        -1.90472
O          4.32482         6.48164        -1.61922
H          4.78231         6.01726        -2.36433
O         -2.04792        -7.85128        -1.29869
O         -3.41898        -0.99387        -2.66245
O          5.41498        -5.13545        -1.24243
O          1.62187        -4.68616        -1.65622
O         -3.76013         4.40406        -2.38229
O          6.41531        -3.75635         1.95938
H          5.51527        -4.00860         2.29478
O          0.56311        -7.56348        -1.51077
H          0.00033        -7.03677        -2.13235
O         -8.09703         2.31983        -2.14621
O         -1.11168        -0.47002        -3.15333
H         -0.76130        -1.29310        -3.56464
O         -5.25993         6.35049         1.63344
O         -2.00114         5.31360         0.63693
O          2.32894         3.12713        -2.24749
H          2.96066         2.55033        -2.74217
O          7.71200         2.87461        -2.06377
H          7.45685         3.76204        -2.41358
O          6.69576        -0.26337        -1.81819
O          0.33294         5.50972        -2.18498
H          0.97168         6.20614        -2.46336
O         -1.16490         9.18639        -1.37452
O         -0.32646        10.25546         2.06755
H          0.49942        10.53487         2.51392
O         -4.63508        -6.00372         1.80412
O          9.71741         1.22481        -1.27110
O          0.16476        -2.55450        -2.44171
O          2.07380        -1.79218         0.79203
O         -2.36551        -3.46206        -2.87769
H         -2.90442        -2.86663        -3.44477
O          1.05504         7.83653        -1.40732
O         -1.16556        -5.60667        -2.02005
H         -1.76853        -5.07931        -2.59980
O         -7.70326        -2.82554         2.10201
H         -8.18577        -3.04052         2.92760
O          3.95485        -8.46154         2.06703
O          2.88921         7.24696         1.87037
O          1.09127         2.84738         1.17095
H          1.28548         3.58474         1.80357
O          7.24274        -1.20226         1.68967
H          7.87930        -1.78170         2.17331
O          1.52538         5.22798         1.31950
O          8.69618        -7.84051         0.25854
H          8.63947        -7.83579         1.23826
O         -3.06148         7.81444         1.60362
O          6.20773         3.72811         1.10833
O         -3.00916         7.61316        -2.07430
H         -2.53292         8.43442        -2.34206
O          0.06804       -10.40716        -1.23138
H          0.22155        -9.52878        -1.65869
O          8.93236        -3.44309         1.95320
H          8.17540        -3.94864         2.33923
O          4.78339        -7.66915        -1.35186
H          4.99478        -6.90315        -1.93524
O          3.79795         9.49273         2.57914
H          3.31890         8.71434         2.95183
O          3.97453        -5.17563         2.07893
H          3.18752        -4.83704         2.55641
O          4.49211        -1.65359        -1.87294
O         -4.44870        -8.48845        -0.88682
H         -3.70815        -8.65187        -1.52038
O         -0.07814        -5.45684         1.46196
H          0.25169        -6.25543         1.99415
O          3.44004         0.66682        -2.76175
H          4.09636         0.07702        -3.19608
O         -5.79859        -1.65129        -2.48541
H         -5.06262        -1.61662        -3.14270
O          0.71265        -7.77020         2.10004
O          7.47012         1.36238         1.24240
H          7.02059         2.15991         1.60989
O         -5.29221         6.71109        -1.98699
H         -5.32934         6.12046        -2.77336
O         -9.92893         5.65650         0.25869
H         -9.80700         5.41107         1.19855
O         -8.32191        -3.56298        -1.44324
H         -8.77707        -2.82035        -1.91310
O        -10.80016        -1.82451        -1.08220
H        -10.86062        -0.96943        -1.57496
O         -3.44486        -8.52898         2.60657
H         -3.28691        -9.23712         3.26511
O        -10.44128         1.12028        -1.54588
H         -9.67253         1.51320        -2.06251
O         -3.40339         0.34898         0.73628
H         -4.24021         0.11285         1.21105
H         12.18116        -1.21256         0.40475
H         12.36845         1.12315         0.70191
H         10.66912         3.43676         1.09954
H          9.54330         5.53001         0.64280
H          8.35595         7.61657         0.87157
H          7.12469         9.84487         0.48299
H          5.03044        11.12104         0.61892
H          2.32819        11.06019         1.08441
H          0.02643        11.08352         0.17783
H         -2.70736        11.01392         0.62126
H         -4.97602        10.55263         1.80643
H         -6.98412         9.19085         1.88252
H         -8.34821         7.27030         0.97482
H         -9.09842         5.27585        -1.58576
H        -10.91059         3.47574         0.28465
H        -11.92108         1.34280         1.22730
H        -11.88036        -1.08032         1.57663
H        -10.55803        -3.11836         1.69990
H         -9.51449        -5.32029         1.43161
H         -8.43606        -7.49982         1.21414
H         -7.07573        -9.84282         1.15634
H         -4.92647       -11.01496         1.25102
H         -2.37365       -11.00223         1.36409
H         -0.00215       -11.18269         0.69134
H          2.52643       -11.13221         0.56202
H          5.01116       -11.09605         0.36034
H          7.12924        -9.88801         0.14174
H          7.41511        -7.44583        -1.31435
H          9.67135        -5.63625         0.21654
H         11.05255        -3.30027         0.21304
