         657
 CSIRO Nanostructure Databank - Neutral Graphene Oxide Data Set
C          5.87740        31.81393         0.91746
C          5.88176        33.15687         1.01765
C          8.35229        27.44952         1.12240
C          8.33167        28.87665         1.05780
C          7.14536        29.61318         1.07249
C          8.36849        31.81508         1.06511
C          7.14150        31.05056         0.62588
C          8.36823        33.17660         1.12244
C          7.12095        33.93539         0.99851
C          8.31629        36.13562         0.97073
C          7.09518        35.30124         0.93480
C          8.32145        37.51148         0.47517
C         10.76357        23.04244         1.00148
C         10.49976        24.38985         1.29778
C          9.42767        25.24752         1.01437
C         10.77593        27.40220         0.77940
C          9.53452        26.68741         1.04587
C         10.74684        28.84006         0.71219
C          9.59425        29.57738         0.93108
C         10.81511        31.80590         0.74126
C          9.64661        31.04767         1.33810
C         10.79962        33.16133         0.69139
C          9.68312        33.89960         1.39827
C         10.84417        36.10197         0.56551
C          9.65328        35.41154         1.11204
C         10.78300        37.53144         0.41526
C          9.52137        38.24386         0.41397
C         10.73613        40.39199         0.11055
C          9.53795        39.66714         0.27221
C         10.79092        41.82746         0.06620
C         13.58883        19.10549         1.64858
C         13.47019        20.44018         1.22946
C         12.22436        21.11577         1.26642
C         13.29641        23.21533         0.59867
C         12.10152        22.49248         0.99905
C         13.30870        24.62216         0.36061
C         12.29863        25.47008         0.91482
C         13.04967        27.42345        -0.41194
C         12.01161        26.75678         0.47363
C         13.20476        28.86339        -0.01787
C         12.05278        29.53824         0.57607
C         13.23764        31.70867        -0.06042
C         12.06594        31.05569         0.51971
C         13.11308        33.13796        -0.41953
C         11.89203        33.90009         0.02346
C         13.21219        36.02904        -0.16702
C         11.97514        35.37158         0.16128
C         13.23858        37.49469         0.07600
C         11.96464        38.25437         0.11119
C         13.17192        40.38942        -0.43463
C         11.95539        39.64698        -0.03354
C         13.23102        41.84951        -0.29943
C         11.99122        42.55860        -0.07912
C         13.23950        44.70042        -0.18938
C         12.03371        43.98466        -0.05355
C         13.27634        46.12417        -0.18460
C         16.33533        15.13599         2.60671
C         16.15580        16.37980         1.92791
C         14.95077        17.09728         2.06054
C         15.95024        19.04809         0.94301
C         14.82169        18.40921         1.55390
C         15.83753        20.40980         0.49497
C         14.62378        21.12381         0.70269
C         15.64726        23.12108        -0.27420
C         14.52199        22.48970         0.32506
C         15.49744        24.47691        -0.90757
C         14.36641        25.27070        -0.33182
C         15.56337        27.34711        -0.77183
C         14.36364        26.66862        -0.47426
C         15.62037        28.79524        -0.54079
C         14.37827        29.54876        -0.22624
C         15.74906        31.68794        -0.30731
C         14.40570        30.99286        -0.22060
C         15.66419        33.14969        -0.70310
C         14.36672        33.89011        -0.71831
C         15.63769        36.04533        -0.89105
C         14.35592        35.35590        -0.57958
C         15.70627        37.51750        -0.66997
C         14.50488        38.22307        -0.14413
C         15.75967        40.39079        -0.49945
C         14.48153        39.66046        -0.52420
C         15.71656        41.79782        -0.55369
C         14.45400        42.51392        -0.43250
C         15.69160        44.62980        -0.46561
C         14.48252        43.95623        -0.36241
C         15.74841        46.08398        -0.23063
C         14.48637        46.85845        -0.23561
C         15.79403        48.99869        -0.35275
C         14.55755        48.25617        -0.28936
C         15.79394        50.39305        -0.29110
C         19.29773        11.56239         4.16702
C         19.12352        12.79413         3.51905
C         17.84260        13.39510         3.47752
C         18.60036        14.86046         1.63309
C         17.56225        14.46735         2.60912
C         18.43625        16.18840         0.89963
C         17.24267        16.98008         1.21447
C         18.28095        18.90769         0.07724
C         17.16757        18.32208         0.78627
C         18.06406        20.20238        -0.59047
C         16.91533        21.03545        -0.18118
C         17.97355        23.08193        -1.16788
C         16.84313        22.40151        -0.54564
C         17.95834        24.46606        -1.32984
C         16.79356        25.24015        -1.03615
C         17.93888        27.40005        -1.56068
C         16.78024        26.65123        -1.09233
C         17.93756        28.78693        -1.61605
C         16.86458        29.52886        -0.94174
C         18.04686        31.71027        -1.48055
C         16.71027        30.98619        -1.30449
C         18.07679        33.06807        -1.26143
C         16.98969        33.85672        -0.52913
C         18.11692        36.02385        -0.96927
C         16.93867        35.32819        -0.89494
C         18.19685        37.48089        -0.87824
C         17.00627        38.18605        -0.29080
C         18.19571        40.35789        -0.73615
C         16.98749        39.67828        -0.54263
C         18.18000        41.78179        -0.82309
C         16.94779        42.50326        -0.68639
C         18.11360        44.62159        -1.02000
C         16.93088        43.93409        -0.68698
C         18.26369        46.13773        -1.02503
C         17.04750        46.80275        -0.39603
C         18.28026        48.90665        -0.20037
C         17.05757        48.28444        -0.40870
C         18.32881        50.38305        -0.15716
C         17.02959        51.16659        -0.29931
C         18.29510        53.25617         0.23387
C         17.09078        52.61179        -0.00978
C         18.41324        54.66325         0.16302
C         21.61340         7.15623         3.98984
C         21.77225         8.65910         4.19481
C         20.54700         9.46255         4.36119
C         21.73516        11.53238         3.65468
C         20.51209        10.81414         4.09224
C         21.58758        12.88508         2.95268
C         20.21360        13.39394         2.74706
C         21.00532        14.74785         0.76843
C         19.96736        14.35195         1.80419
C         20.83434        16.15384         0.20990
C         19.63019        16.84838         0.32692
C         20.56594        18.81886        -0.86818
C         19.46734        18.20052        -0.15555
C         20.50696        20.13774        -1.29416
C         19.21080        20.84518        -1.35830
C         20.41959        23.07764        -1.90105
C         19.09550        22.30881        -1.84179
C         20.40592        24.44205        -2.11227
C         19.10532        25.15000        -1.98498
C         20.29710        27.40153        -2.55766
C         19.08515        26.64099        -2.12515
C         20.03741        28.71345        -2.84947
C         19.01433        29.54847        -2.22677
C         20.47300        31.73569        -2.43833
C         19.16588        30.93720        -2.05513
C         20.50937        32.99215        -1.52849
C         19.26130        33.88019        -1.72221
C         20.59307        35.96566        -1.50192
C         19.39766        35.21817        -0.96474
C         20.61041        37.45114        -1.38627
C         19.36895        38.17706        -1.02612
C         20.65002        40.32391        -1.12685
C         19.45984        39.64300        -0.93483
C         20.72420        41.81559        -1.42859
C         19.36973        42.48047        -1.16828
C         21.09630        44.85621        -1.11467
C         19.19452        43.83129        -1.44592
C         20.87669        46.09236        -0.53273
C         19.49530        46.65283        -0.20688
C         20.72060        48.80590         0.21944
C         19.52362        48.17017        -0.09646
C         20.72474        50.22335         0.66024
C         19.45695        51.01289         0.59951
C         20.83397        53.15146         0.54333
C         19.47777        52.52402         0.84666
C         20.89021        54.51439         0.38552
C         19.66578        55.30988         0.29426
C         20.97922        57.39835         0.50936
C         19.74289        56.70758         0.30697
C         21.00446        58.78871         0.71748
C         24.21233         4.36739         3.89994
C         23.03032         5.07291         4.13781
C         24.05174         7.08049         3.25095
C         22.93481         6.43330         3.80343
C         23.95442         8.52250         2.82449
C         23.00089         9.33976         3.67347
C         24.01397        11.40352         2.71433
C         22.95245        10.78561         3.34075
C         23.88154        12.67800         2.03094
C         22.66133        13.32536         2.05055
C         23.46504        14.90563         0.24362
C         22.43431        14.61853         1.31566
C         23.15696        15.94941        -0.67518
C         21.91493        16.64955        -0.59026
C         22.87130        18.57118        -2.01772
C         21.68387        17.92455        -1.28682
C         22.94946        20.02319        -1.89493
C         21.67808        20.79687        -1.93325
C         22.81473        23.07263        -2.68988
C         21.62862        22.27748        -2.24564
C         22.50828        24.36579        -3.25160
C         21.51445        25.17458        -2.74390
C         23.01444        27.50192        -3.06077
C         21.68260        26.71051        -2.53785
C         23.09143        28.89234        -2.93567
C         21.94992        29.78227        -2.95737
C         23.05250        31.59636        -1.82199
C         21.81966        30.98940        -2.31805
C         23.01756        32.97358        -1.24409
C         21.80010        33.79555        -1.47800
C         22.97143        35.85793        -0.64805
C         21.83684        35.15330        -1.35770
C         23.06333        37.34781        -0.85589
C         21.81098        38.14919        -0.80363
C         23.13140        40.28198        -0.59572
C         21.96728        39.58589        -1.30592
C         23.11431        41.69573        -0.39992
C         21.97004        42.50237        -0.79288
C         23.16615        44.53315         0.04792
C         22.09507        43.92078        -0.66461
C         23.18625        45.92798         0.28207
C         21.99919        46.70342         0.09842
C         23.17166        48.75542         0.75267
C         21.96298        48.08601         0.39079
C         23.21273        50.18282         0.84619
C         22.01288        50.95206         0.75070
C         23.33039        53.02396         0.72867
C         22.05059        52.35146         0.66103
C         23.40228        54.43987         0.63173
C         22.20584        55.21147         0.11790
C         23.41526        57.33419         0.74392
C         22.20669        56.66692         0.52633
C         23.44296        58.73432         0.99684
C         22.21606        59.46904         0.97766
C         23.41994        61.50741         1.58835
C         22.23035        60.86641         1.25121
C         25.31225         5.00192         3.32343
C         26.40074         7.04665         2.40803
C         25.25084         6.37020         2.99630
C         26.45485         8.40774         2.29635
C         25.30919         9.20471         2.79034
C         26.54782        11.45025         2.22918
C         25.31870        10.69771         2.70030
C         26.23578        12.54471         1.21306
C         24.97926        13.16515         1.18298
C         25.79543        14.73256        -0.58765
C         24.72728        14.26973         0.27862
C         25.56745        15.77090        -1.48822
C         24.22838        16.36528        -1.60415
C         25.41794        18.58411        -2.29773
C         24.15586        17.82770        -2.16278
C         25.44425        19.95627        -2.10987
C         24.19302        20.57254        -1.75087
C         25.44070        23.24501        -2.77437
C         24.12785        22.72321        -2.42427
C         25.55193        24.62372        -3.00237
C         24.45417        25.45480        -3.38402
C         25.61165        27.53942        -3.07034
C         24.30583        26.81310        -3.10993
C         25.66805        29.02129        -2.94372
C         24.34100        29.76935        -2.98692
C         25.54963        31.67098        -1.92166
C         24.25150        30.94662        -2.01885
C         25.56537        33.11083        -1.54969
C         24.29861        33.71228        -1.03285
C         25.45485        35.81144        -0.50567
C         24.29790        35.17812        -0.81320
C         25.42809        37.21531        -0.02935
C         24.16902        38.02914        -0.21766
C         25.43227        40.14239         0.29101
C         24.25210        39.52089        -0.18822
C         25.46470        41.55825         0.42015
C         24.28323        42.30031         0.15999
C         25.55739        44.43116         0.72893
C         24.23338        43.70605         0.68701
C         25.58692        45.82409         0.86404
C         24.37115        46.58984         0.74063
C         25.62312        48.67773         1.14438
C         24.37850        47.99496         0.90590
C         25.66349        50.07462         1.11189
C         24.47279        50.84489         0.96559
C         25.78842        52.95276         1.08999
C         24.52546        52.27199         0.92116
C         25.82376        54.38247         1.07603
C         24.63360        55.10241         0.80161
C         26.00092        57.30484         1.11568
C         24.67772        56.57102         0.64774
C         25.86138        58.68523         1.53591
C         24.66771        59.40545         1.36448
C         24.61689        60.79628         1.66618
C         27.59761         9.14866         1.80271
C         28.89492        11.22392         1.36072
C         27.63765        10.50369         1.75158
C         28.58834        12.36131         0.41613
C         27.30894        13.00582         0.38597
C         28.16094        14.54924        -1.33413
C         27.10540        14.09925        -0.52232
C         27.94482        15.51165        -2.48622
C         26.64431        16.30714        -2.35350
C         27.90469        18.56764        -2.65415
C         26.62311        17.82123        -2.65910
C         27.86146        20.05968        -2.80358
C         26.51912        20.82244        -2.81887
C         27.88340        23.00715        -2.55299
C         26.65232        22.38773        -2.54297
C         28.02673        24.51577        -2.81238
C         26.77068        25.29554        -2.43163
C         28.18514        27.41746        -2.55692
C         26.88116        26.74313        -2.85926
C         28.26464        28.94565        -2.48122
C         26.89475        29.63294        -2.35363
C         27.96765        31.48775        -1.13164
C         26.82225        30.89664        -1.86804
C         27.95842        32.93531        -0.74709
C         26.87147        33.85276        -1.28041
C         27.97909        35.79925        -0.29176
C         26.70781        35.00435        -0.27781
C         27.97719        37.23726        -0.12664
C         26.68335        37.99596         0.02110
C         27.94059        40.01506         0.90510
C         26.59109        39.28539         0.82658
C         27.94912        41.53448         0.96336
C         26.69188        42.25957         0.76980
C         28.00299        44.34642         1.09244
C         26.75638        43.66720         0.83507
C         28.02721        45.74998         1.27468
C         26.82202        46.50582         1.14642
C         28.07496        48.55370         1.63531
C         26.84732        47.90930         1.31061
C         28.03995        50.03713         1.92944
C         27.01525        50.74093         1.03910
C         28.21006        52.88369         1.57988
C         26.97617        52.22266         1.29507
C         28.22338        54.28953         1.66382
C         27.06283        55.06285         1.39898
C         27.09111        56.45857         1.55640
C         29.60571        12.79070        -0.40755
C         30.54916        14.46197        -1.91770
C         29.42259        13.89876        -1.27451
C         30.49988        15.78535        -2.37727
C         29.20869        16.41223        -2.84969
C         30.36074        18.63995        -2.41380
C         29.12058        17.90846        -2.59968
C         30.35220        20.04413        -2.20879
C         29.16576        20.80304        -2.64537
C         30.27095        22.95315        -1.73401
C         29.24667        22.32386        -2.66439
C         30.31427        24.34844        -1.65851
C         29.22856        25.17634        -2.13824
C         30.39810        27.21631        -1.36751
C         29.27757        26.56343        -1.99159
C         30.42750        28.62911        -1.14746
C         29.30247        29.44193        -1.48339
C         30.37304        31.40602        -0.41136
C         29.25109        30.76600        -1.05166
C         30.37058        32.85056        -0.15831
C         29.24008        33.59020        -0.41466
C         30.52722        35.75677        -0.04725
C         29.23628        35.06623        -0.38873
C         30.45741        37.13508         0.52183
C         29.17519        37.87455         0.47759
C         30.45597        40.01990         0.49578
C         29.17708        39.33302         0.57194
C         30.48829        41.54419         0.67213
C         29.22573        42.25164         0.86925
C         30.48688        44.28727         1.41545
C         29.24033        43.62606         1.10804
C         30.45900        45.65094         1.73842
C         29.25789        46.40468         1.60434
C         30.54176        48.51364         1.99268
C         29.26035        47.82514         1.78425
C         30.55944        49.94944         1.94134
C         29.39305        50.71264         1.83531
C         29.40764        52.11491         1.75962
C         31.67110        16.53611        -2.36170
C         32.75478        18.65926        -1.86699
C         31.60766        17.95227        -2.28519
C         32.66274        19.98179        -1.44905
C         31.46045        20.70170        -1.63673
C         32.68833        22.78622        -1.02178
C         31.33599        22.10335        -1.06805
C         32.73874        24.24325        -1.09842
C         31.48289        25.02692        -1.14105
C         32.69024        27.06965        -0.36055
C         31.50739        26.40773        -0.96798
C         32.74510        28.53634        -0.24312
C         31.56634        29.26408        -0.50932
C         32.63049        31.23120         0.68026
C         31.52727        30.65797        -0.18129
C         32.70503        32.73704         0.63838
C         31.61021        33.50199         0.29592
C         32.80752        35.63878         0.81399
C         31.68308        34.94953         0.38497
C         32.91049        37.09104         0.79134
C         31.72023        37.88033         0.63709
C         32.93965        39.99374         0.88674
C         31.72093        39.27230         0.69385
C         32.96365        41.38414         1.09712
C         31.75075        42.17943         1.09339
C         32.96426        44.24215         1.74765
C         31.72498        43.53156         1.44924
C         32.94104        45.55487         2.09856
C         31.65908        46.29333         2.38744
C         31.70090        47.78114         2.15720
C         33.85100        20.58058        -0.73935
C         35.11066        22.71433        -0.52016
C         33.87834        22.08586        -0.81073
C         35.21746        24.12025        -0.33616
C         34.03832        24.91885        -0.75281
C         35.30296        27.01422        -0.19880
C         33.96480        26.31013        -0.21781
C         35.21598        28.44983         0.26076
C         33.97196        29.18022         0.18081
C         35.18183        31.22642         0.87189
C         33.96566        30.54564         0.51365
C         35.18141        32.59830         1.13689
C         33.92262        33.36117         1.16832
C         35.28367        35.59354         1.23041
C         33.99091        34.88956         1.25063
C         35.33214        36.97384         1.17366
C         34.12816        37.73689         0.98907
C         35.42702        39.85302         1.39321
C         34.23360        39.22029         0.71814
C         35.37194        41.27727         1.60984
C         34.22509        42.02345         1.42795
C         34.29552        43.53596         1.54703
C         36.32893        24.75245         0.19853
C         37.62405        26.91831         0.68032
C         36.29503        26.19942         0.63955
C         37.64960        28.29361         0.73513
C         36.40243        29.06518         0.63660
C         37.64928        31.11453         1.14762
C         36.43170        30.47959         0.90844
C         37.70807        32.56288         1.40389
C         36.42663        33.33668         1.41461
C         37.80234        35.47642         1.38642
C         36.52233        34.78651         0.95951
C         37.75828        36.91412         1.58291
C         36.60595        37.66234         1.41385
C         36.56193        39.09768         1.61029
C         38.88110        29.01507         0.96321
C         40.12010        31.12231         1.45302
C         38.89277        30.38216         1.14893
C         40.17426        32.47225         1.47566
C         38.98478        33.29056         1.02218
C         38.95350        34.74261         1.45892
O         37.11075        33.00845         2.66389
O         29.60874        37.19216         1.73730
O         17.99459        50.94774        -1.44754
O         12.40398        30.31949         1.77420
O         23.92853        16.66839        -2.99386
O         21.31777        21.25715        -3.30114
O         28.01804        40.70712         2.22823
O         20.22342        44.48209        -2.13719
O         20.88032        29.36825        -3.75049
O         21.79404        17.97053        -2.75677
O         27.51768        31.94056         0.21574
O         25.83510        28.39298        -4.26257
O         33.68625        24.76882        -2.15249
O         25.52394        32.75073        -2.96764
O         18.67241        25.75612        -3.25991
O         25.61324        57.06647        -0.30156
O         14.13061        37.88958         1.21855
O         15.55708        37.03327        -2.01588
O         16.70127        29.13402         0.45441
O         18.13832        14.88980         0.24223
O         22.90180         8.99803         5.08572
O         23.63305        33.03993         0.10506
O         19.80107        50.31957         1.83989
O         28.68441        20.37999        -3.99192
O         23.43562        24.87598        -4.14467
O         12.04413        33.43514        -1.38225
O         13.70428        39.90685        -1.74156
O         16.65343        46.33456         0.93027
O         24.55160        37.40340         1.10482
O          9.07062        36.08756         2.27012
O         25.59722        10.01015         3.97805
O         30.16627        35.65629        -1.44677
O         27.38378        38.07491        -1.23653
O         20.56758        36.80420        -2.69571
O         15.02944        33.40893        -1.97764
O         11.57865        25.00143         2.00146
O         29.43796        16.30533        -4.34987
O         24.27192        21.88428        -1.29969
O         33.11787        26.43903         0.94600
O         21.97600        12.78932         4.36250
O         27.84357        26.98669        -3.91553
O         30.55621        40.93387        -0.67666
O         33.75796        34.07558         2.45376
O         18.19562        20.04944        -2.05207
O         26.31979        16.82016        -3.67564
O         20.35197        32.11477        -3.82530
H         20.40882        31.28863        -4.35841
O         19.27756        52.73681         2.27387
H         19.62387        51.93063         2.72764
O         20.88769         6.60678         5.09484
H         21.37717         6.83365         5.91282
O         27.33637        34.43634        -2.50380
H         26.94318        33.92056        -3.24819
O         27.09079        12.14168         3.39157
H         26.92713        11.54954         4.16169
O         24.29008        30.42631        -4.28751
H         24.72978        29.81796        -4.92635
O         31.45005        46.13332         3.84840
H         30.58278        46.53972         4.06103
O         22.56011        15.68370         2.31353
H         23.31093        15.46045         2.90353
O         28.77388        29.39562        -3.76519
H         28.35034        28.81768        -4.44452
O         22.55292        35.62053         0.78269
H         22.91852        34.73009         1.01994
O         16.07580        30.95673        -2.60417
H         15.73581        31.85912        -2.81231
O         26.61798        25.31375        -0.98931
H         26.56869        24.38758        -0.67006
O         34.90855        44.04733         0.34181
H         34.28899        43.89563        -0.40142
O         20.96315        41.90265        -2.88214
H         20.14116        41.62043        -3.33750
O          7.21684        30.97289        -0.85163
H          8.02303        30.46283        -1.08153
O         36.53604        34.69098        -0.50507
H         36.71067        35.58582        -0.86641
O         22.29876        39.53393        -2.70989
H         22.10817        40.42724        -3.08868
O         22.35688        55.23175        -1.34791
H         22.33662        54.30222        -1.65980
O         27.73896        14.62472        -3.60576
H         27.45179        15.18570        -4.36238
O         20.84998        13.81389        -0.32490
H         19.93152        13.91916        -0.66265
O         26.58173        34.40660         1.04099
H         26.40820        35.11817         1.69341
O         28.46483        17.09095        -5.05926
H         28.87661        17.98932        -5.11125
O         16.27362        31.64079         1.02566
H         16.42513        30.69186         1.25899
O         27.49002        50.57154        -0.33362
H         26.87978        51.05644        -0.92770
O         28.13610        24.59925        -4.24580
H         28.96621        24.12316        -4.49748
O         34.52554        39.30239        -0.73087
H         34.52130        40.25282        -0.97458
O         22.01345        26.76704        -1.10207
H         21.29468        26.32611        -0.60011
O         19.04998        34.27206        -3.08567
H         19.27907        33.51769        -3.68026
O         17.10567        38.02031         1.15726
H         17.94569        38.42963         1.45446
O         18.36556        46.60237        -2.38084
H         19.09254        46.09649        -2.80990
O         27.57718        50.19162         3.30004
H         28.25709        49.81170         3.89428
O         15.08831        24.21311        -2.31570
H         15.85042        23.78063        -2.76204
O          9.99446        33.76521         2.80640
H          9.50241        34.47973         3.27296
O         26.05868        20.80438        -4.18906
H         26.85069        20.85669        -4.76966
O         29.80051        22.63852        -3.99210
H         29.45725        21.95201        -4.61163
O         19.27490        46.14226         1.13762
H         19.81863        46.66501         1.76315
O         19.75024        34.95464         0.44014
H         20.64138        35.34710         0.64558
O         23.39885         8.55447         1.47490
H         23.90929         7.92712         0.92069
O         35.07459        20.01941        -1.22025
H         35.21082        20.32657        -2.13988
O         26.25273        38.89478         2.17060
H         26.57390        39.61277         2.76574
O         39.02471        33.29130        -0.43917
H         39.86937        33.70121        -0.71863
O         30.88323        21.92686         0.33105
H         31.61706        21.51302         0.83309
O         35.81489        27.00937        -1.55321
H         35.18222        27.47750        -2.13620
O          9.82954        30.99173         2.77922
H         10.78096        30.78282         2.93359
O         29.87587        10.34856         0.80655
H         29.56351        10.04879        -0.07145
O         18.68746        22.23374        -3.23648
H         19.37003        21.69410        -3.70134
O         20.44608        32.42091        -0.19493
H         20.23367        33.15406         0.43295
O         21.48955        38.26937         0.62935
H         21.95232        37.54381         1.11093
O         23.83547        43.55622         2.11432
H         23.76187        44.46041         2.48873
O         12.52928        27.42250        -1.78278
H         12.72774        26.54889        -2.18301
O         32.22350        30.92327         2.06652
H         32.26082        29.94884         2.17720
O         17.28678        33.86008         0.88747
H         18.16565        34.28726         1.02370
O         35.78696        26.19283         2.00872
H         36.42561        25.70539         2.56913
H          4.92907        31.25626         0.94412
H          4.93793        33.70756         1.15051
H          7.39210        26.92372         1.23136
H          6.18317        29.08385         1.15576
H          6.12775        35.81812         0.83791
H          7.36234        38.00589         0.26043
H          9.93115        22.35152         0.79924
H          8.46053        24.81609         0.71644
H          8.58333        40.21124         0.32946
H          9.84936        42.38448         0.18798
H         12.71194        18.58774         2.06466
H         11.33115        20.55129         1.57290
H         11.09428        44.54108         0.08551
H         12.32375        46.67374        -0.13077
H         15.52961        14.77992         3.26546
H         14.10037        16.63458         2.58179
H         13.61977        48.83286        -0.27245
H         14.85095        50.92608        -0.09772
H         18.41938        11.08530         4.62739
H         17.04119        12.99644         4.11679
H         16.19860        53.21855        -0.23433
H         17.52462        55.26917        -0.07172
H         20.98329         6.98569         3.07464
H         19.61904         8.93656         4.63292
H         18.81498        57.29566         0.25001
H         20.06083        59.35405         0.70474
H         24.27267         3.30158         4.16097
H         22.16108         4.56990         4.58397
H         23.41415        62.58398         1.80960
H         21.28717        61.42962         1.21470
H         26.23754         4.44020         3.13175
H         27.26026         6.43377         2.09707
H         26.70548        59.16080         2.05753
H         25.54512        61.31221         1.95009
H         28.48867         8.58256         1.48638
H         29.33944        11.65898         2.29877
H         29.16199        54.80795         1.90916
H         27.95151        56.92650         2.05724
H         30.58594        12.29440        -0.36413
H         31.53396        13.99857        -1.75233
H         31.53517        50.45943         1.96338
H         30.36795        52.64878         1.83125
H         32.62226        16.03990        -2.11668
H         33.70809        18.12480        -1.74746
H         33.88859        46.08214         2.29086
H         32.65681        48.30807         2.30176
H         33.77712        20.28484         0.34777
H         35.97555        22.07216        -0.29726
H         36.29019        41.78620         1.94344
H         34.98928        43.80635         2.38376
H         37.20084        24.14246         0.48705
H         38.55146        26.34365         0.83244
H         38.69927        37.42508         1.84088
H         37.47617        39.59363         1.97441
H         39.82041        28.44401         1.01782
H         41.02021        30.53296         1.68823
H         41.11932        32.98522         1.71445
H         39.90553        35.24087         1.70667
