         404
 CSIRO Nanostructure Databank - Neutral Graphene Oxide Data Set
C          1.12070         1.94889        -0.11155
C          1.07046         3.36304         0.10319
C          2.28950         1.24362        -0.09564
C          2.20569         4.12753         0.30537
C          1.05516         6.34758         0.03308
C          1.08371         7.76847        -0.05954
C          2.19727         5.58132         0.17916
C          2.25116         8.51556        -0.04816
C          1.10460        10.71416        -0.26285
C          1.11752        12.10967        -0.38625
C          2.27921         9.96976        -0.10437
C          2.31392        12.83375        -0.41146
C          1.15193        15.05900        -0.41711
C          1.18568        16.44516        -0.46569
C          2.33132        14.28600        -0.54048
C          2.39957        17.13109        -0.69465
C          2.46426        18.57736        -0.70930
C          3.52419         1.86916         0.37724
C          3.47803         3.42617         0.58560
C          4.83342         1.29077         0.11309
C          4.76870         4.12393         0.51684
C          3.49691         6.28240         0.10766
C          3.53535         7.78682        -0.03700
C          4.70935         5.59018         0.64572
C          4.78573         8.52612         0.28792
C          3.54089        10.67493        -0.03890
C          3.55703        12.11722        -0.26712
C          4.73319         9.96919         0.22034
C          4.76668        12.82134        -0.40590
C          3.56132        14.96585        -0.76873
C          3.57768        16.37590        -0.89434
C          4.80970        14.22255        -0.75155
C          4.81887        17.08982        -1.24820
C          3.64603        19.24898        -0.83559
C          4.89392        18.55093        -1.03258
C          6.01421         2.01107         0.29707
C          5.98328         3.45772         0.50731
C          7.27137         1.35604         0.17694
C          7.24194         4.20107         0.51494
C          5.98793         6.36331         0.74965
C          5.95678         7.83211         0.53976
C          7.25353         5.61371         0.59643
C          7.25755         8.51575         0.65200
C          5.97548        10.72488         0.42723
C          6.01783        12.16868        -0.00509
C          7.28567         9.99548         0.51340
C          7.31932        12.75804        -0.38449
C          6.03331        14.87208        -0.92851
C          6.12161        16.30026        -1.28414
C          7.29547        14.12451        -0.90380
C          7.39101        17.03961        -1.07362
C          6.11386        19.18901        -1.03338
C          7.37264        18.47804        -1.04082
C          8.48962         2.05481         0.24290
C          8.47625         3.49141         0.37488
C          9.72925         1.36393         0.15128
C          9.71795         4.19416         0.35112
C          8.48086         6.34010         0.47474
C          8.50234         7.75561         0.42248
C          9.71906         5.62084         0.40769
C          9.73053         8.48076         0.33262
C          8.47506        10.56896        -0.22991
C          8.50920        12.07490        -0.27210
C          9.75864         9.89423         0.16382
C          9.78416        12.76370        -0.27974
C          8.62738        14.88188        -0.92418
C          8.59531        16.35925        -0.88665
C          9.80831        14.17631        -0.42638
C          9.82756        17.05980        -0.71299
C          8.57941        19.17316        -0.90967
C          9.82366        18.49806        -0.76163
C         10.95931         2.04144         0.15662
C         10.95267         3.48209         0.24058
C         12.20192         1.34538         0.06581
C         12.18004         4.19444         0.18832
C         10.94904         6.33009         0.40735
C         10.97066         7.77532         0.42234
C         12.15579         5.60213         0.27625
C         12.18040         8.51113         0.50355
C         10.96782        10.62223         0.19529
C         10.97225        12.04225         0.02231
C         12.20791         9.91480         0.42088
C         12.20109        12.81532         0.42084
C         11.03982        14.90936        -0.33171
C         11.04899        16.35454        -0.53038
C         12.22224        14.21562        -0.12461
C         12.27006        17.07091        -0.43095
C         11.04294        19.19749        -0.63905
C         12.26995        18.51186        -0.48711
C         13.43772         2.01117         0.01771
C         13.44179         3.47147         0.05778
C         14.67087         1.30186        -0.05544
C         14.64030         4.14962        -0.01991
C         13.40004         6.37639         0.16427
C         13.43775         7.74053         0.81933
C         14.67318         5.62282         0.01420
C         14.71889         8.49337         0.54240
C         13.46896        10.63416         0.46560
C         13.50350        12.05203         0.32128
C         14.70063         9.92665         0.54250
C         14.72297        12.73538         0.28990
C         13.49678        14.90733        -0.34316
C         13.51243        16.37858        -0.30710
C         14.78134        14.15725        -0.12129
C         14.73115        17.05971        -0.19480
C         13.50655        19.19517        -0.38713
C         14.72629        18.50475        -0.23135
C         15.91971         1.95664        -0.14071
C         15.90632         3.42660        -0.23512
C         17.16907         1.31387        -0.21459
C         17.23038         4.14812        -0.08511
C         15.91531         6.31833         0.44918
C         15.91576         7.80285         0.44893
C         17.19551         5.58758         0.34230
C         17.17545         8.49622         0.53396
C         15.94425        10.63220         0.65047
C         15.96387        12.07367         0.55732
C         17.14790         9.90422         0.74527
C         17.17288        12.80801         0.63469
C         16.00881        14.93560         0.10837
C         15.98118        16.34877         0.00808
C         17.20858        14.24092         0.40647
C         17.19425        17.07847         0.16625
C         15.95389        19.20000        -0.11204
C         17.17682        18.52264         0.07546
C         18.44059         1.97013        -0.07457
C         18.46318         3.38376         0.20314
C         19.61576         1.17208        -0.31993
C         19.63270         4.18870         0.47361
C         18.43111         6.38009         0.01798
C         18.41293         7.81066         0.51855
C         19.63253         5.58346         0.39497
C         19.64020         8.50487         0.73913
C         18.39550        10.58521         1.08667
C         18.39572        12.12997         1.06552
C         19.66461         9.87234         0.97206
C         19.71734        12.79754         0.92988
C         18.41232        14.97829         0.55412
C         18.41765        16.39142         0.41849
C         19.65801        14.28841         0.95602
C         19.66084        17.14284         0.46293
C         18.38802        19.24031         0.18363
C         19.62623        18.57987         0.33508
C         20.91460         1.50014         0.12775
C         20.92705         3.57440         0.68883
C         22.19084         1.19878        -0.35712
C         22.13639         4.14274         0.30756
C         20.87730         6.34488         0.32579
C         20.91702         7.71754         1.01549
C         22.14525         5.60802         0.13719
C         22.16821         8.48690         0.64181
C         20.94905        10.59900         1.34588
C         20.89146        12.10571         1.00446
C         22.18191         9.87691         0.79394
C         22.19443        12.83271         1.05739
C         20.93753        15.07854         0.96455
C         20.90323        16.49753         0.55851
C         22.24692        14.34812         0.93275
C         22.13005        17.21507         0.37752
C         20.83783        19.30605         0.41062
C         22.08207        18.65534         0.41253
C         23.37820         1.97171        -0.04196
C         23.36668         3.40346         0.21056
C         24.62883         1.34245        -0.18975
C         24.59361         4.14784         0.16130
C         23.40688         6.33139         0.31166
C         23.36995         7.75790         0.36430
C         24.59874         5.60298         0.23365
C         24.58111         8.46751         0.10779
C         23.38420        10.58769         0.50397
C         23.45326        12.05684         0.75895
C         24.53134         9.89949         0.09808
C         24.63062        12.81045         0.25318
C         23.45175        15.06180         0.35781
C         23.36689        16.55493         0.11668
C         24.58287        14.18325        -0.07069
C         24.51704        17.37202        -0.04454
C         23.30565        19.39532         0.49661
C         24.51338        18.75916         0.30227
C         25.85709         2.04155        -0.07246
C         25.83429         3.47240         0.05416
C         27.10001         1.36834        -0.11335
C         27.08171         4.19284         0.08784
C         25.83005         6.33172         0.08623
C         25.78647         7.74135        -0.07801
C         27.07035         5.62068         0.04525
C         27.00049         8.38688        -0.70323
C         25.73921        10.65094        -0.28911
C         25.81205        12.09645        -0.03753
C         27.01319         9.91882        -0.62767
C         27.02905        12.77384        -0.28871
C         25.72559        14.70735        -0.71091
C         25.75030        16.87283        -0.59421
C         27.00572        14.15654        -0.56572
C         27.02109        17.31988        -0.28193
C         25.83763        19.50615         0.34106
C         27.09571        18.64023         0.29783
C         28.32626         2.06307         0.01263
C         28.30609         3.48443         0.12514
C         29.57440         1.36282        -0.00898
C         29.58792         4.20919         0.44827
C         28.31901         6.34911        -0.07218
C         28.28322         7.71513        -0.29755
C         29.58542         5.65319         0.01736
C         29.52486         8.48000        -0.45343
C         28.26198        10.66834        -0.38107
C         28.27915        12.04700        -0.29845
C         29.47484         9.91416        -0.05802
C         29.52572        12.80270        -0.22274
C         28.25714        14.94253        -0.71614
C         28.26008        16.53029        -0.56662
C         29.51167        14.21877        -0.39445
C         29.53917        17.12891        -0.11928
C         28.31784        19.21976         0.53463
C         29.55836        18.51763         0.32742
C         30.81121         2.03734        -0.06962
C         30.82764         3.47979        -0.00624
C         32.04140         1.32734        -0.18891
C         32.00618         4.18696        -0.23833
C         30.79655         6.31146        -0.17093
C         30.83204         7.76691        -0.41195
C         32.04634         5.61504        -0.21015
C         32.06662         8.51758        -0.06471
C         30.75592        10.65057         0.19396
C         30.75266        12.11521        -0.03257
C         32.02564         9.87588         0.12640
C         31.97592        12.81980        -0.10813
C         30.72813        14.94214        -0.28605
C         30.71340        16.38631        -0.11969
C         31.95471        14.21717        -0.20532
C         31.96831        17.05694         0.30120
C         30.76123        19.19545         0.50243
C         32.01924        18.53002         0.39347
C         33.26697         1.99127        -0.39893
C         33.22253         3.45257        -0.62656
C         34.50914         1.34208        -0.43573
C         34.52571         4.22624        -0.70196
C         33.28843         6.34709        -0.27064
C         33.31426         7.76928        -0.07458
C         34.52382         5.66821        -0.39491
C         34.54351         8.44070         0.06461
C         33.25520        10.62165         0.44275
C         33.25852        12.11291         0.19982
C         34.54855         9.86367         0.45490
C         34.57239        12.75447        -0.05694
C         33.24271        14.93744        -0.35654
C         33.28651        16.34083         0.12870
C         34.55052        14.20390        -0.36602
C         34.53979        17.09751         0.01824
C         33.24229        19.17429         0.47287
C         34.51215        18.50531         0.28940
C         35.75374         2.04682        -0.51488
C         35.78394         3.48013        -0.56757
C         36.97929         1.34934        -0.45312
C         36.99058         4.19258        -0.53956
C         35.76183         6.35910        -0.32154
C         35.78513         7.77202        -0.10962
C         36.99847         5.64550        -0.48605
C         37.03546         8.50001        -0.16155
C         35.83676        10.63694         0.36681
C         35.75691        12.09951         0.12616
C         37.06962         9.91489        -0.02572
C         37.05424        12.86184         0.28843
C         35.78886        14.98060        -0.19254
C         35.75707        16.37144        -0.15031
C         37.05727        14.20818        -0.44310
C         37.03862        17.10901        -0.24776
C         35.70932        19.21937         0.41586
C         37.00252        18.62805         0.08580
C         38.21130         2.03520        -0.47166
C         38.22521         3.46525        -0.53219
C         39.46214         1.34209        -0.44192
C         39.45673         4.15598        -0.63310
C         38.20583         6.36527        -0.57266
C         38.24748         7.78370        -0.42898
C         39.44425         5.61194        -0.86113
C         39.50474         8.50246        -0.47496
C         38.28356        10.64644        -0.15299
C         38.30275        12.06965        -0.05555
C         39.51725         9.92764        -0.34092
C         39.51333        12.79043        -0.11621
C         38.31753        14.97127        -0.11087
C         38.30637        16.37838        -0.04375
C         39.52323        14.24232        -0.02530
C         39.50356        17.09569         0.20476
C         38.25418        19.21740         0.53112
C         39.46389        18.51872         0.47623
C         40.65210         2.03141        -0.47392
C         40.67558         3.45401        -0.57929
C         41.92013         4.18516        -0.50569
C         40.77524         6.34907        -0.84800
C         40.74437         7.81339        -0.60423
C         41.97042         5.54262        -0.54567
C         41.94650         8.53506        -0.57756
C         40.75142        10.64369        -0.34142
C         40.75731        12.08916        -0.21180
C         41.95513         9.91791        -0.45361
C         41.95458        12.82898        -0.14381
C         40.76045        14.94789         0.09922
C         40.74764        16.38958         0.28354
C         41.95878        14.20898         0.03195
C         41.92077        17.11089         0.57004
C         40.68742        19.18604         0.79481
C         41.88300        18.49381         0.81860
O         18.28391        11.39269         2.32615
O         33.76722         3.87509        -1.92092
O          3.73409         6.89591        -1.20797
O         16.66211         3.92054        -1.41088
O         23.06457        12.37330         2.13496
O         14.25207        14.33862        -1.49895
O         33.15127        11.54519         1.56376
O         29.92031        10.18123         1.32300
O         25.58402        15.83773        -1.51154
O         20.96062         7.44825         2.38537
O         23.24318        14.90941         1.82663
O          5.18426         6.02332         1.96303
O         28.34005        15.85006        -1.85004
O         14.04694         6.29145        -1.14298
O         32.63615        16.41629         1.45267
O         20.20430        14.83969         2.21378
O         26.17380        10.44528        -1.71007
O          5.40925        16.65234        -2.51947
O          5.92923        11.78685         1.43551
O         16.58687         5.77127         1.64990
O         35.32925        10.15149         1.66657
O          8.07207        14.28843        -2.14752
O         30.25785         8.20566        -1.70459
O         40.11347         5.99787        -2.11396
O          3.40409         2.49213         1.69740
O         37.07218        18.08769        -1.30523
O         21.42112         6.24686        -1.04922
O          7.47865         9.43310         1.82964
O         33.87063        14.62167        -1.63720
O         20.92601         2.32724         1.28620
O         12.05275        13.00899         1.89917
H         11.13952        13.33064         2.06181
O          8.21651        10.17200        -1.62758
H          8.89185        10.60334        -2.19399
O         25.86970        20.38695         1.46727
H         25.78579        19.85091         2.28212
O         37.13176        13.16796         1.70963
H         36.92378        12.35015         2.21057
O         26.89376         8.04672        -2.12708
H         26.38230         8.78056        -2.54576
O         29.64569         4.22911         1.93510
H         30.47448         4.68909         2.18818
O         37.07839        13.89818        -1.86417
H         36.90842        14.72432        -2.36419
O         13.41754         7.47150         2.25515
H         13.45803         8.32874         2.72907
O         18.47614         6.48811        -1.44370
H         19.42112         6.52146        -1.71859
O         21.04388        10.54648         2.78698
H         20.17753        10.83907         3.15022
H          0.19046         1.44641        -0.41295
H          0.10215         3.85969        -0.05050
H          2.32085         0.19996        -0.44075
H          0.06771         5.86482         0.04093
H          0.11127         8.27798        -0.10713
H          0.13279        10.20380        -0.29997
H          0.15540        12.62667        -0.50077
H          0.18832        14.56355        -0.23712
H          0.25928        17.02072        -0.32695
H          1.52858        19.13667        -0.56325
H          4.88807         0.25268        -0.24855
H          3.66607        20.34748        -0.78085
H          7.28648         0.26491         0.03677
H          6.14646        20.28366        -0.92073
H          9.71707         0.26717         0.06559
H          8.56856        20.27342        -0.90441
H         12.18403         0.24576         0.02271
H         11.04018        20.29716        -0.67073
H         14.64360         0.20140        -0.04200
H         13.51604        20.29460        -0.42959
H         17.18034         0.21607        -0.29941
H         15.95357        20.29931        -0.15778
H         19.48280         0.27478        -0.94398
H         18.36956        20.33812         0.11623
H         22.31257         0.36703        -1.06769
H         20.80446        20.40544         0.42041
H         24.65844         0.25920        -0.37989
H         23.27166        20.47661         0.69196
H         27.11190         0.27283        -0.21830
H         25.87800        20.16835        -0.57047
H         29.56036         0.26421        -0.06878
H         28.36055        20.26465         0.87463
H         32.03043         0.22919        -0.11572
H         30.74280        20.26784         0.74749
H         34.54109         0.24732        -0.32637
H         33.25907        20.26498         0.61849
H         36.97353         0.25060        -0.39837
H         35.68789        20.24914         0.80231
H         39.45924         0.24388        -0.38729
H         38.23941        20.23631         0.94652
H         41.60683         1.48724        -0.43267
H         42.84110         3.61218        -0.32080
H         42.92337         6.05211        -0.34351
H         42.90379         8.00853        -0.68894
H         42.92178        10.43736        -0.46164
H         42.92384        12.31713        -0.20894
H         42.92770        14.72231         0.09444
H         42.88769        16.59416         0.63223
H         40.66435        20.26432         1.00714
H         42.81772        19.02247         1.05215
