         638
 CSIRO Nanostructure Databank - Neutral Graphene Oxide Data Set
C         23.00941        69.94697        -0.64611
C         22.98368        71.35594        -0.70144
C         21.81332        72.08291        -0.90598
C         22.97500        74.22363        -0.70955
C         21.82640        73.50312        -0.94502
C         25.46552        65.68695        -0.40818
C         25.39559        67.07276        -0.18559
C         24.25204        67.82737        -0.48050
C         25.34664        69.97756         0.14092
C         24.18803        69.23750        -0.33442
C         25.39577        71.36146         0.03975
C         24.30761        72.08120        -0.72593
C         25.32576        74.25894        -0.02292
C         24.22574        73.56231        -0.42685
C         27.91881        61.40629        -0.27809
C         27.89050        62.80062        -0.28637
C         26.67967        63.54150        -0.29646
C         27.90253        65.67102         0.06874
C         26.65695        64.94530        -0.20372
C         27.87225        67.07986         0.30038
C         26.51961        67.69661         0.60904
C         27.82249        69.98378         0.61692
C         26.52049        69.22546         0.62429
C         27.80925        71.44265         0.41891
C         26.59752        72.10353         0.31001
C         27.86252        74.25939         0.14647
C         26.56180        73.59853         0.52508
C         30.46949        57.18647        -0.48809
C         30.38001        58.49413        -0.08699
C         29.14793        59.24698        -0.22835
C         30.42111        61.33540        -0.10158
C         29.12444        60.62769        -0.22654
C         30.42704        62.82447        -0.14198
C         29.16113        63.59575        -0.52896
C         30.34222        65.69622         0.30548
C         29.12274        64.99777         0.02656
C         30.31783        67.12615         0.43655
C         29.07169        67.79766         0.39237
C         30.32727        70.00471         0.67304
C         29.08708        69.28885         0.18617
C         30.25104        71.44636         0.74568
C         29.06792        72.14117         0.50399
C         30.32361        74.27070         0.17738
C         29.07288        73.59213         0.28769
C         33.06721        52.88542        -0.41157
C         32.95461        54.28582        -0.15899
C         31.84869        55.01221        -0.56347
C         32.46057        56.96090         0.91931
C         31.81526        56.50904        -0.39722
C         32.74723        58.46802         0.80133
C         31.58901        59.18962         0.40906
C         32.79270        61.28793         0.67949
C         31.59077        60.59540         0.43703
C         32.77446        62.75384         0.89300
C         31.50943        63.53128         0.61235
C         32.73592        65.71780         0.97334
C         31.53641        64.99708         0.55821
C         32.76155        67.17736         0.79492
C         31.54089        67.85912         0.64181
C         32.78339        69.95036         1.30389
C         31.51277        69.30031         0.77867
C         32.78264        71.46538         1.11126
C         31.50173        72.21127         0.92985
C         32.76584        74.31818         0.49752
C         31.55501        73.63750         0.47827
C         35.49185        48.65657        -0.10597
C         35.48684        50.05559        -0.01594
C         34.30172        50.80307        -0.25815
C         35.49875        53.01091         0.16417
C         34.25197        52.19698        -0.13411
C         35.23433        54.17017         1.17946
C         33.96858        54.90707         0.71194
C         35.43507        57.21246         1.58853
C         33.61539        56.08433         1.27255
C         35.27558        58.50693         1.16448
C         33.97974        59.15818         0.99322
C         35.24852        61.32974         0.71698
C         34.00059        60.58218         0.83766
C         35.22286        62.78178         0.67816
C         34.05748        63.48036         0.87456
C         35.29691        65.69945         0.75610
C         34.06162        64.94867         1.07920
C         35.26192        67.11735         0.63962
C         34.02536        67.86924         0.78975
C         35.25174        70.00953         0.56189
C         34.04470        69.26671         0.82425
C         35.24407        71.39547         0.42703
C         33.95034        72.15687         0.42296
C         35.31600        74.29448         0.41701
C         34.05418        73.63100         0.90371
C         37.87074        44.31084         0.05444
C         37.86550        45.72019         0.20786
C         36.66331        46.47781         0.10016
C         37.86752        48.59496         0.47617
C         36.66669        47.89790         0.15648
C         37.88534        50.00501         0.57256
C         36.69367        50.76052         0.35153
C         37.85799        52.81130         0.99149
C         36.69472        52.16375         0.54749
C         37.80320        54.24325         1.50449
C         36.52143        55.01561         1.24790
C         37.82715        57.12874         0.99349
C         36.60524        56.39472         1.32884
C         37.78903        58.49971         0.77637
C         36.56778        59.29428         1.16959
C         37.67566        61.36283         0.20239
C         36.46354        60.67079         0.60056
C         37.69273        62.74204         0.16441
C         36.54725        63.49535         0.80375
C         37.66466        65.67087         0.17941
C         36.47414        64.97509         0.48784
C         37.66143        67.06862         0.21440
C         36.47642        67.82230         0.41861
C         37.66058        69.97380         0.00763
C         36.48591        69.27443         0.33077
C         37.72473        71.40132        -0.10182
C         36.40644        72.12180        -0.21208
C         37.73247        74.23890         0.12380
C         36.46341        73.59072         0.14540
C         40.30087        39.98613         0.06940
C         40.27716        41.42580         0.08137
C         39.08274        42.14833         0.04387
C         40.31770        44.27815         0.22294
C         39.07163        43.57410         0.10792
C         40.32335        45.70198         0.37343
C         39.10223        46.39951         0.43320
C         40.36127        48.56200         0.74995
C         39.06944        47.81644         0.93361
C         40.36091        49.96729         0.86173
C         39.10654        50.69856         0.86665
C         40.35217        52.77912         1.39365
C         39.07647        52.08189         1.10770
C         40.33599        54.31253         1.31393
C         39.05936        55.00168         1.14185
C         40.28031        57.05414         0.57644
C         39.06498        56.37043         0.85188
C         40.29982        58.55930         0.50398
C         38.94941        59.23016         0.31703
C         40.04789        61.25400        -0.67941
C         38.88054        60.56931        -0.04188
C         40.00482        62.77407        -0.90280
C         38.98169        63.49962        -0.01297
C         40.11479        65.66213        -0.84140
C         38.74300        64.91255        -0.58756
C         40.19411        67.04796        -0.21587
C         38.97434        67.77234         0.31907
C         40.18636        69.89792        -0.25040
C         38.89519        69.18734        -0.18524
C         40.17313        71.37461        -0.30984
C         38.93653        72.11366        -0.26628
C         40.14211        74.36583         0.13217
C         38.95591        73.58127        -0.08891
C         42.67918        35.61774        -0.13620
C         42.67669        37.12435        -0.04899
C         41.52508        37.82484         0.09020
C         42.75100        39.98875         0.04782
C         41.48691        39.28025         0.05858
C         42.75190        41.41918         0.14330
C         41.52923        42.13463         0.15216
C         42.78626        44.26283         0.30447
C         41.54184        43.55860         0.22703
C         42.79338        45.69626         0.38056
C         41.57521        46.40974         0.44190
C         42.79242        48.57326         0.53931
C         41.56854        47.85484         0.56608
C         42.81191        49.94793         0.77817
C         41.59941        50.66819         0.92495
C         42.82561        52.82695         1.04932
C         41.62784        52.09575         1.12144
C         42.79832        54.27742         0.92765
C         41.57425        54.98380         0.92198
C         42.74487        57.00281         0.16604
C         41.52782        56.36028         0.55694
C         42.69716        58.34658        -0.45581
C         41.38749        59.06417        -0.42140
C         42.64227        61.23884        -0.89104
C         41.35520        60.52040        -0.78000
C         42.58125        62.70013        -1.07292
C         41.35287        63.45561        -0.75666
C         42.65011        65.52227        -0.50303
C         41.38666        64.82946        -0.61951
C         42.66905        66.93977        -0.00490
C         41.38191        67.70349        -0.16272
C         42.68540        69.88570        -0.29716
C         41.44485        69.17777         0.20184
C         42.67270        71.26320        -0.49018
C         41.39106        71.90680        -0.67980
C         42.72441        74.30017         0.10770
C         41.43101        74.01232        -0.32480
C         45.10161        32.99497         1.21907
C         43.92388        33.64326         0.77268
C         45.15371        35.72926         0.51952
C         43.93696        34.98187         0.41810
C         45.19450        37.11691         0.23360
C         43.98292        37.81581        -0.35132
C         45.19892        39.98165         0.07179
C         43.95949        39.28837        -0.02414
C         45.21337        41.40339         0.15714
C         43.99149        42.12454         0.18564
C         45.26787        44.24306         0.34001
C         44.00898        43.54930         0.26611
C         45.26120        45.69087         0.37829
C         44.05453        46.38407         0.37462
C         45.31873        48.57261         0.42446
C         44.03746        47.86255         0.08500
C         45.33460        49.94608         0.63614
C         44.09888        50.64484         1.13259
C         45.28927        52.81482         0.77751
C         44.09030        52.13660         0.89794
C         45.31018        54.31120         0.96888
C         44.00249        54.98169         0.66145
C         45.18482        56.95640        -0.41392
C         43.96498        56.32226         0.23240
C         45.16903        58.47560        -0.44753
C         43.95044        59.12600        -0.63959
C         45.11170        61.31203        -0.94957
C         43.86732        60.56903        -0.86476
C         45.15374        62.70121        -0.90377
C         43.90397        63.46491        -1.04108
C         45.13993        65.54878        -0.44003
C         43.87370        64.87081        -0.62083
C         45.12041        66.99254        -0.29770
C         43.93618        67.67832        -0.33346
C         45.16450        69.90684        -0.39415
C         43.91145        69.13537        -0.70269
C         45.13412        71.33634        -0.40161
C         43.88759        72.06178        -0.48516
C         45.13270        74.14236        -0.10055
C         43.88873        73.48860        -0.22563
C         46.29367        33.68104         1.29255
C         47.56975        35.77874         1.00433
C         46.35456        35.06462         0.94837
C         47.62074        37.15147         0.70674
C         46.40019        37.83025         0.35637
C         47.65568        39.96528         0.22269
C         46.42628        39.26001         0.18584
C         47.66668        41.37150         0.11730
C         46.46126        42.10491         0.18895
C         47.77845        44.22077         0.64345
C         46.47266        43.52765         0.31501
C         47.74991        45.70175         0.32914
C         46.53434        46.40132         0.32493
C         47.76647        48.54262         0.31723
C         46.53817        47.83750         0.31794
C         47.76872        49.97194         0.34944
C         46.55338        50.68060         0.55817
C         47.76600        52.81502         0.47533
C         46.55290        52.11400         0.64121
C         47.84183        54.33453         0.65221
C         46.51773        55.02573         0.42016
C         47.73894        57.16484         0.10814
C         46.47755        56.32996         0.05431
C         47.65563        58.53501        -0.51589
C         46.42259        59.16275        -0.64061
C         47.63812        61.32502        -1.03893
C         46.37153        60.54579        -1.24470
C         47.63961        62.73524        -0.84917
C         46.38396        63.44443        -0.79492
C         47.69613        65.58121        -0.73211
C         46.35617        64.85697        -0.62709
C         47.65889        67.03641        -0.30218
C         46.37647        67.71836         0.10230
C         47.57123        69.90218        -0.05077
C         46.36267        69.20745        -0.17208
C         47.59215        71.31984        -0.13357
C         46.36713        72.03439        -0.25242
C         47.60782        74.15849        -0.11457
C         46.37730        73.46930        -0.17645
C         48.84505        37.88594         0.75472
C         50.11164        40.00277         0.60220
C         48.89681        39.25385         0.48295
C         50.18730        41.36477         0.30786
C         48.94719        42.06678        -0.25036
C         50.22623        44.25462        -0.27207
C         48.97243        43.52120         0.06459
C         50.23260        45.70717         0.12945
C         48.98556        46.40423         0.23389
C         50.22753        48.53291         0.13033
C         48.99457        47.82433         0.24190
C         50.21987        49.94822        -0.00099
C         48.98255        50.68438         0.15795
C         50.18561        52.81373        -0.12965
C         48.95444        52.10131         0.16552
C         50.18596        54.17784        -0.22330
C         48.87492        54.90802        -0.32409
C         50.13900        57.08502        -0.55154
C         48.98340        56.41326        -0.28532
C         50.16145        58.53024        -0.83046
C         48.88181        59.23011        -0.82945
C         50.06486        61.43997        -1.47040
C         48.85431        60.61573        -1.08715
C         50.10714        62.72423        -0.64241
C         48.86718        63.39873        -0.53454
C         50.12401        65.53627         0.23258
C         48.75662        64.78786         0.08779
C         50.10422        67.00312        -0.17475
C         48.82476        67.70711        -0.11683
C         50.04652        69.90179        -0.07864
C         48.81993        69.15303         0.33950
C         50.06424        71.29280        -0.09321
C         48.83267        72.03107        -0.06665
C         50.08844        74.14650        -0.11555
C         48.84587        73.46291        -0.10514
C         51.38483        42.09925         0.38305
C         52.64253        44.21684         0.35576
C         51.46182        43.50597         0.21111
C         52.70761        45.65410         0.19185
C         51.44221        46.39244         0.15843
C         52.68599        48.53284        -0.07743
C         51.46734        47.83254         0.12774
C         52.65292        49.89837        -0.43121
C         51.42309        50.59197        -0.35502
C         52.59586        52.73868        -1.06231
C         51.35874        52.03654        -0.62145
C         52.70300        54.16756        -0.64240
C         51.46184        54.90822        -0.25413
C         52.69293        57.07781        -0.82717
C         51.44413        56.39540        -0.40138
C         52.59963        58.40103        -1.54780
C         51.32782        59.17078        -1.21089
C         52.64058        61.27455        -1.05099
C         51.39281        60.62741        -1.64130
C         52.61581        62.62206        -0.36465
C         51.32501        63.39317        -0.44963
C         52.54527        65.51009        -0.34017
C         51.34628        64.81249        -0.30032
C         52.60854        67.00642        -0.46771
C         51.27087        67.68818        -0.30710
C         52.48061        69.84413         0.19948
C         51.29465        69.18364        -0.49749
C         52.53803        71.31395         0.01984
C         51.32614        72.01283        -0.12320
C         52.56332        74.12450         0.00065
C         51.32421        73.44958        -0.09916
C         53.89983        46.33282         0.18363
C         55.16674        48.34322        -0.70328
C         54.00471        47.83528         0.18755
C         55.15307        49.85646        -0.79143
C         53.83768        50.46756        -1.23384
C         55.12582        52.74182        -0.88286
C         53.90143        52.02740        -1.42053
C         55.14696        54.16494        -0.97760
C         53.93008        54.90463        -0.99603
C         55.15129        57.00302        -1.20221
C         53.93095        56.28987        -1.05311
C         55.08203        58.46084        -1.16954
C         53.89827        59.15908        -1.30030
C         55.10512        61.30204        -0.86983
C         53.84811        60.59753        -1.08676
C         55.10534        62.79722        -1.07262
C         53.83463        63.46221        -0.64418
C         55.05651        65.57818        -0.25301
C         53.81370        64.82555        -0.46443
C         55.03125        66.91296         0.15136
C         53.69615        67.54685         0.49012
C         55.00813        69.81987         0.45643
C         53.72669        69.07954         0.53183
C         54.99274        71.24431         0.37789
C         53.76750        71.98280         0.20079
C         55.01650        74.10345         0.28166
C         53.77851        73.42060         0.15060
C         56.27068        50.58498        -0.55124
C         57.53299        52.76102        -0.50562
C         56.32640        52.04337        -0.65112
C         57.60001        54.16503        -0.70968
C         56.37467        54.88422        -0.98993
C         57.67940        56.98777        -1.46619
C         56.36731        56.28740        -1.18437
C         57.63824        58.43467        -1.01092
C         56.33977        59.16210        -0.82792
C         57.55588        61.37039        -0.66923
C         56.30995        60.64094        -0.78814
C         57.56675        62.74454        -0.53971
C         56.33619        63.49436        -0.55122
C         57.50300        65.49011         0.37728
C         56.29799        64.84267        -0.25623
C         57.48794        66.99630         0.31260
C         56.25450        67.66347         0.33137
C         57.46677        69.83070         0.47915
C         56.23053        69.10959         0.43448
C         57.46116        71.26184         0.51538
C         56.22387        71.96199         0.43555
C         57.46905        74.09232         0.50220
C         56.22030        73.39982         0.41210
C         58.79473        54.90054        -0.53888
C         60.02819        57.02006        -0.58849
C         58.87661        56.29744        -0.82018
C         60.22102        58.41726        -1.13105
C         58.90961        59.21290        -1.16882
C         60.02613        61.27341        -0.09815
C         58.85797        60.66102        -0.83695
C         60.09867        62.76423        -0.27288
C         58.85635        63.51778        -0.66899
C         59.99090        65.57830         0.14709
C         58.81130        64.88865        -0.05538
C         59.96492        67.00451         0.41143
C         58.72054        67.70396         0.41471
C         59.93827        69.85057         0.60869
C         58.70891        69.13338         0.49495
C         59.93399        71.27818         0.65846
C         58.69318        71.98391         0.58159
C         59.94860        74.22047         0.57795
C         58.66871        73.41700         0.57938
C         61.37122        59.19961        -0.53355
C         62.53363        61.30276        -0.01665
C         61.34445        60.55261        -0.28369
C         62.52293        62.70045         0.14419
C         61.26666        63.43784        -0.01709
C         62.44942        65.57148         0.37393
C         61.26653        64.88585         0.10324
C         62.43313        66.99979         0.56711
C         61.18498        67.70862         0.55084
C         62.39706        69.83736         0.85120
C         61.17372        69.13534         0.67387
C         62.39079        71.26533         0.95155
C         61.16792        71.98689         0.81645
C         62.37662        74.08838         1.11398
C         61.19457        73.41869         0.86988
C         63.70765        63.43432         0.36500
C         64.89045        65.56342         0.71235
C         63.70612        64.84699         0.47770
C         64.89342        66.97752         0.85534
C         63.63945        67.69656         0.78284
C         64.84723        69.81919         1.14879
C         63.63057        69.11984         0.93293
C         64.84001        71.24006         1.27966
C         63.61300        71.96050         1.16978
C         64.82104        74.06866         1.51628
C         63.61469        73.38931         1.28090
C         66.08302        67.68510         1.08548
C         67.28491        69.80840         1.46682
C         66.09124        69.09888         1.23630
C         67.28971        71.21897         1.60768
C         66.05591        71.94097         1.50771
C         67.27418        74.04302         1.86763
C         66.04724        73.36672         1.63473
C         68.48853        71.94075         1.84025
C         68.46818        73.33054         1.96804
O         58.99777        60.22149        -2.23587
O         43.21783        63.18977        -2.30929
O         51.57792        52.42538        -2.05849
O         31.80644        63.05318         1.97413
O         40.40038        53.57719         2.63119
O         52.28898        57.11012         0.57452
O         32.15492        72.10037         2.27511
O         39.56409        69.36028        -1.47662
O         27.16744        69.65649         1.88310
O         49.77242        62.09507        -2.69685
O         52.79631        69.52547         1.59616
O         57.06870        58.56115         0.32311
O         52.37554        54.38579         0.77772
O         33.34882        65.34058         2.28483
O         41.40588        73.09020        -1.39912
O         40.45385        60.63999        -1.95662
O         45.11896        56.69890        -1.81029
O         30.90107        62.07700        -1.31600
O         41.72907        58.28676        -1.58908
O         34.40097        56.60065         2.30886
O         31.48455        56.79781         1.98179
H         31.96094        56.88551         2.83452
O         44.14633        37.71841        -1.81350
H         44.96533        38.20548        -2.04742
O         48.27131        54.61788         2.01041
H         47.48995        54.44386         2.58869
O         36.11823        72.13197        -1.68185
H         36.36561        71.24827        -2.03173
O         54.03677        52.27812        -2.85294
H         54.84320        51.81368        -3.16235
O         51.65149        60.59039        -3.07854
H         50.98202        61.24437        -3.45552
O         53.56074        49.92400        -2.56412
H         52.86293        50.49402        -2.96296
O         40.73635        59.02017         1.83461
H         40.02264        58.80773         2.47464
O         29.20121        63.80485        -1.97309
H         29.69949        63.03730        -2.34623
O         47.90845        44.13835         2.12222
H         47.12534        44.58829         2.50613
O         50.36137        44.27257        -1.75748
H         51.24935        44.63889        -1.96091
O         38.04908        64.76015        -1.84385
H         38.40371        65.44980        -2.45437
O         57.87178        56.99825        -2.90338
H         58.07602        56.08530        -3.19336
O         32.66467        57.05063        -1.46218
H         32.29312        56.76011        -2.32112
O         55.08166        47.76294        -2.00609
H         54.43664        48.29526        -2.52868
O         51.47624        69.46765        -1.91822
H         52.16505        68.83508        -2.24420
O         35.86105        53.69207        -1.07305
H         35.96895        53.01545        -1.77373
O         24.73523        72.00273        -2.13439
H         25.59105        72.47637        -2.20966
O         44.18315        50.51204         2.60683
H         43.35021        50.87430         2.97892
O         39.19626        67.89486         1.78123
H         39.20354        66.98949         2.16064
O         58.97644        63.74814        -2.13087
H         59.82725        64.21275        -2.28407
O         41.51677        69.28028         1.66475
H         40.67973        68.86759         2.01179
O         36.81066        59.55905         2.61973
H         36.08305        60.13641         2.93799
O         54.39059        48.22306         1.54680
H         53.69646        47.90127         2.15985
O         53.08556        67.29866        -1.82528
H         52.72509        66.61270        -2.42753
O         42.74563        66.81026         1.47692
H         42.60845        67.72072         1.84462
O         52.50373        58.08249        -2.96100
H         52.27025        58.93388        -3.41718
O         46.38334        67.62189         1.58374
H         46.43436        66.66687         1.81211
O         48.33810        54.59629        -1.64495
H         48.93492        54.96671        -2.32803
O         32.77099        69.68666         2.73860
H         32.26926        70.42720         3.15410
O         26.45430        73.77971         1.99053
H         27.18704        73.27343         2.40238
O         40.18090        65.92129        -2.27601
H         40.36159        65.05499        -2.71053
O         47.92503        57.42006         1.54826
H         48.14899        56.54664         1.96188
O         52.75229        62.26929         1.07621
H         52.78300        63.10949         1.58324
O         37.78376        54.09540         2.97909
H         38.70274        53.81942         3.23914
O         57.39337        65.15376         1.81693
H         58.11424        65.62833         2.28343
O         48.12988        65.52972        -2.10935
H         47.39405        65.81946        -2.68716
O         48.15904        64.61747         1.39051
H         48.88246        64.69388         2.05673
O         26.24416        67.26888         1.97985
H         26.69947        67.91574         2.56823
O         55.15380        62.97532        -2.54025
H         56.04550        62.69106        -2.83799
O         53.32631        67.06018         1.80885
H         53.00295        67.84175         2.31941
O         41.51356        35.05503         0.47133
H         41.55535        35.22700         1.43400
O         38.90145        47.69507         2.40826
H         38.06212        47.20919         2.55957
O         50.40887        65.58369         1.67354
H         51.27809        66.03338         1.79717
O         49.05144        41.89464        -1.71197
H         49.61194        42.63755        -2.05054
O         36.87624        63.46271         2.25818
H         36.13862        63.90452         2.73491
O         60.62902        58.21463        -2.52254
H         60.29674        58.99649        -3.02316
O         59.84236        75.33969         1.46977
H         59.72378        74.99542         2.37850
O         46.31947        60.26929        -2.69456
H         45.66749        59.54763        -2.83786
O         29.07814        69.46755        -1.27507
H         29.88677        69.04531        -1.63511
O         39.56741        63.63576         1.30836
H         38.83035        63.61073         1.96488
O         59.66797        61.07074         1.31291
H         60.38661        61.45151         1.86073
O         43.96455        47.93756        -1.39255
H         44.74408        47.45998        -1.74914
O         34.99790        53.61238         2.48503
H         35.84585        53.63899         2.98763
O         33.52883        72.20677        -0.97967
H         34.34666        72.35497        -1.52410
O         43.83948        69.08504        -2.19300
H         43.72253        70.00598        -2.51301
O         34.19915        73.69935         2.34819
H         33.38813        73.29534         2.74436
O         48.80992        69.10447         1.80988
H         47.96502        68.64921         2.05685
O         39.64888        62.98127        -2.28917
H         40.03920        62.22222        -2.78839
O         45.49338        54.46326         2.44535
H         44.75164        53.98928         2.88131
H         22.93653        75.32168        -0.65196
H         25.25586        75.35227         0.09736
H         27.86595        75.34715        -0.02347
H         30.32251        75.34037        -0.08098
H         32.78216        75.39014         0.24473
H         35.38712        75.38587         0.55930
H         37.75646        75.31199         0.37096
H         40.01987        75.29867         0.70462
H         42.89616        75.15844         0.77481
H         45.13846        75.22825         0.07854
H         47.60888        75.25815        -0.08553
H         50.09409        75.24682        -0.11487
H         52.57839        75.22470         0.00640
H         55.03086        75.20318         0.26001
H         57.46954        75.19221         0.49523
H         60.06846        74.66133        -0.45280
H         62.37126        75.18720         1.16504
H         64.81752        75.16553         1.60234
H         67.27445        75.13794         1.96708
H         22.08323        69.38372        -0.83902
H         20.85461        71.55231        -1.00380
H         20.87928        74.03426        -1.11657
H         24.57839        65.16354        -0.79810
H         23.38206        67.31406        -0.91944
H         26.96144        60.86127        -0.25679
H         25.72405        62.99812        -0.36568
H         29.60501        56.67264        -0.93594
H         28.21140        58.68700        -0.37452
H         32.19724        52.33756        -0.80519
H         31.07707        54.52410        -1.17957
H         34.56225        48.13111        -0.37046
H         33.38061        50.26164        -0.52386
H         36.91655        43.78243        -0.08959
H         35.71969        45.95451        -0.11248
H         39.34280        39.44462         0.07162
H         38.12457        41.61170        -0.02497
H         42.62574        35.35324        -1.23042
H         40.57712        37.28108         0.22828
H         45.05888        31.93106         1.49157
H         42.98423        33.07737         0.69914
H         47.21124        33.17273         1.62237
H         48.49137        35.25180         1.29364
H         49.77087        37.34999         1.01346
H         50.99477        39.49958         1.02707
H         52.32741        41.54952         0.54179
H         53.55025        43.69175         0.69110
H         54.84143        45.76795         0.26247
H         56.12870        48.00122        -0.24217
H         57.19702        50.06299        -0.26235
H         58.45849        52.21175        -0.27597
H         59.69520        54.38290        -0.17354
H         60.90364        56.50966        -0.15580
H         62.35055        58.69334        -0.55466
H         63.49994        60.77517        -0.01594
H         64.66266        62.89510         0.45497
H         65.84283        65.01832         0.79352
H         67.03409        67.13560         1.14956
H         68.23502        69.25796         1.53722
H         69.43921        71.39407         1.91872
H         69.40816        73.87118         2.14825
