         234
 CSIRO Nanostructure Databank - Neutral Graphene Oxide Data Set
C          1.46286         2.00266        -1.56931
C          1.33399         3.41727        -1.36736
C          2.59722         1.32409        -1.24156
C          2.37046         4.18568        -0.88910
C          1.10417         6.36180        -0.96637
C          1.06782         7.74224        -0.78851
C          2.31995         5.65172        -0.86598
C          2.25350         8.49303        -0.67132
C          1.20604        10.55815         0.22817
C          1.19981        11.98595         0.42126
C          2.24028         9.92724        -0.40253
C          2.29657        12.76068         0.15604
C          1.12547        14.93302         0.94587
C          1.23647        16.16323         1.49186
C          2.29570        14.27829         0.24135
C          2.50906        16.88137         1.56180
C          2.56697        18.27952         1.94241
C          3.67479         1.99093        -0.49917
C          3.57578         3.50346        -0.37092
C          5.03060         1.30332        -0.43951
C          4.83357         4.26310        -0.18912
C          3.50971         6.39400        -0.67606
C          3.50034         7.81286        -0.71634
C          4.72341         5.73859        -0.15673
C          4.75212         8.54244        -0.87469
C          3.34602        10.76629        -1.00605
C          3.52349        12.11838        -0.32017
C          4.66663         9.99264        -1.22751
C          4.73415        12.75805        -0.23487
C          3.60447        14.79483         0.81075
C          3.66040        16.22412         1.19679
C          4.86431        14.06205         0.47765
C          4.98590        16.83708         1.35798
C          3.73721        18.97085         1.97911
C          5.02961        18.30781         1.75270
C          6.17062         2.17057         0.06580
C          6.03822         3.64014         0.04291
C          7.32932         1.55114         0.42987
C          7.17909         4.42851         0.51678
C          5.96651         6.58635         0.01993
C          5.96440         7.91366        -0.62676
C          7.25446         5.91042         0.41475
C          7.26410         8.47120        -1.07640
C          5.97186        10.74366        -1.21776
C          6.00892        12.04126        -0.47852
C          7.26562         9.99281        -1.34685
C          7.32958        12.72881        -0.22145
C          6.15057        14.80897         0.40037
C          6.08592        16.31980         0.45001
C          7.32295        14.18475         0.07383
C          7.41758        16.98881         0.68145
C          6.24196        19.05283         1.42125
C          7.42932        18.39095         1.05473
C          8.58877         2.36178         0.60326
C          8.19912         3.72836         1.08968
C          9.80444         1.78271         1.28502
C         10.07536         4.73301         0.94011
C          8.61237         6.61178         0.14251
C          8.55185         7.78175        -0.77060
C          9.91783         5.88280         0.15971
C          9.70497         8.12894        -1.43625
C          8.52042        10.77770        -1.27032
C          8.56431        12.13137        -0.77308
C          9.66909        10.25440        -1.81492
C          9.74898        12.86919        -0.78971
C          8.58031        14.91761        -0.02907
C          8.59231        16.33522         0.33394
C          9.74263        14.26629        -0.40462
C          9.85151        17.04121         0.37484
C          8.66300        19.08903         1.04491
C          9.87866        18.43539         0.74200
C         11.04593         2.44375         1.20969
C         11.15121         3.83688         0.79441
C         12.28258         1.75936         1.39274
C         12.34728         4.36531         0.24562
C         11.09527         6.33913        -0.52106
C         11.04955         7.64741        -1.15182
C         12.31549         5.65046        -0.38541
C         12.19657         8.40353        -1.37161
C         10.99292        10.84283        -1.64397
C         11.01695        12.22328        -1.09006
C         12.19190         9.89748        -1.53734
C         12.21855        12.83312        -0.76319
C         11.01442        15.04310        -0.63753
C         11.04992        16.38642         0.04681
C         12.27634        14.23454        -0.42302
C         12.28760        17.05749         0.16114
C         11.11316        19.12619         0.75473
C         12.32672        18.45911         0.48407
C         13.51335         2.34494         1.02801
C         13.54260         3.61450         0.37815
C         14.74838         1.66395         1.35103
C         14.80884         4.23069        -0.03761
C         13.56446         6.25529        -0.90452
C         13.53430         7.72358        -1.30917
C         14.85851         5.67391        -0.44021
C         14.82586         8.49236        -1.28959
C         13.42155        10.53390        -0.96709
C         13.44350        11.99586        -0.66315
C         14.70717         9.86021        -1.30549
C         14.74727        12.72128        -0.71665
C         13.47196        14.89350        -0.18805
C         13.52057        16.33644        -0.00735
C         14.75441        14.17257        -0.41958
C         14.73544        17.02688         0.02377
C         13.57767        19.13321         0.49264
C         14.78328        18.45017         0.24377
C         15.97695         2.24512         1.13968
C         16.05474         3.52630         0.39915
C         17.22158         1.66355         1.56749
C         17.24780         4.37858         0.64828
C         16.03672         6.35974        -0.53947
C         16.16099         7.65048        -1.38225
C         17.25350         5.78718         0.12272
C         17.49866         8.37219        -1.06768
C         15.83126        10.75333        -1.50809
C         16.01150        11.96076        -0.89096
C         17.74354         9.66353        -1.53776
C         17.36828        12.50807        -0.43416
C         16.04530        14.79948        -0.01418
C         16.02373        16.29052         0.06402
C         17.36143        14.04122        -0.21098
C         17.24940        17.04910        -0.32448
C         16.04084        19.13288         0.26592
C         17.26813        18.49744        -0.01093
C         18.43679         2.29871         1.39270
C         18.51667         3.66421         0.89622
C         19.67761         1.68416         1.84204
C         19.71282         4.32963         0.77142
C         18.58054         6.41574        -0.00174
C         18.63421         7.76394        -0.44657
C         19.75037         5.73908         0.41617
C         19.86828         8.48903        -0.31554
C         18.78940        10.51488        -1.15431
C         18.63140        12.02683        -1.29828
C         19.93170         9.89029        -0.60512
C         19.90567        12.75680        -0.89102
C         18.60536        14.83561        -0.45289
C         18.53179        16.32519        -0.61068
C         19.88847        14.16249        -0.79448
C         19.79971        17.07372        -0.47977
C         18.49777        19.16268        -0.05522
C         19.74264        18.48167        -0.26710
C         20.87096         2.28699         1.66272
C         21.00929         3.55681         0.86141
C         22.14794         4.42662         1.31068
C         20.98558         6.44363         0.52130
C         21.03990         7.83081         0.17633
C         22.13018         5.76021         1.09350
C         22.24223         8.58646         0.28149
C         21.14531        10.63179        -0.45723
C         21.13254        12.06769        -0.70502
C         22.29391         9.93687        -0.02844
C         22.32253        12.83100        -0.64137
C         21.07993        14.92252        -0.69352
C         21.03654        16.39022        -0.54957
C         22.30247        14.21587        -0.69673
C         22.22069        17.15206        -0.46736
C         20.95998        19.20471        -0.19860
C         22.17521        18.54143        -0.30931
O          9.11077         4.40029         1.89945
O          5.34485        17.18915         2.70653
O         16.04292        15.45681         1.28530
O          4.25241        13.97228         1.83121
O         18.23968        14.38469         0.91312
O         16.79193        10.23923        -2.37701
O         13.57577         6.63001        -2.32351
O          9.64683         9.04663        -2.50905
O         11.86587        10.53682        -2.80383
O          6.72750        11.85656         0.80370
O         17.66277        16.75805        -1.71384
O          7.93861         6.69151         1.43479
O          7.19723         9.02852        -2.42092
O         16.97399         5.48683         1.56524
O          3.28030         2.59523         0.76300
O          5.24290        10.56281        -2.46559
O          5.03704         6.40098         1.13547
O         15.62380         3.41603        -0.99193
O         14.77106        13.72377        -1.83314
O         13.35410        10.98681         0.42467
O         17.52532        11.90796         0.87113
H         17.95128        12.58149         1.45318
O          9.02965         2.62941        -0.80117
H          9.36451         1.78047        -1.16269
O         16.26509         7.20744        -2.75155
H         15.39243         6.81019        -2.99339
O         18.39993        12.39659        -2.66864
H         17.75040        11.75817        -3.04653
O         10.99985        15.34332        -2.08275
H         11.88151        15.70259        -2.32076
O         21.33700         3.13391        -0.51136
H         20.60346         2.56279        -0.82407
O          5.37302         0.82664        -1.75631
H          5.66973         1.58715        -2.29692
O          2.27425        14.74967        -1.14381
H          1.49963        14.34627        -1.58880
O          5.64817        16.73298        -0.89305
H          6.35131        16.48710        -1.53122
O          2.80814        11.08805        -2.32556
H          3.58371        11.22318        -2.92069
H          0.64572         1.48103        -2.08788
H          0.41350         3.89964        -1.72514
H          2.73882         0.27813        -1.54840
H          0.15890         5.81512        -1.08663
H          0.09750         8.25782        -0.77349
H          0.34775         9.98040         0.60071
H          0.28337        12.43844         0.82596
H          0.13716        14.45065         0.90445
H          0.34923        16.65572         1.91875
H          1.61838        18.80178         2.13646
H          4.94004         0.39362         0.20787
H          3.73404        20.05765         2.15138
H          7.38838         0.45132         0.39888
H          6.25767        20.14317         1.57211
H          9.80113         0.71434         1.55365
H          8.67824        20.15313         1.32373
H         12.27749         0.73435         1.79250
H         11.12621        20.20036         0.99122
H         14.68593         0.69426         1.86789
H         13.60311        20.21066         0.71271
H         17.19774         0.67108         2.04290
H         16.04137        20.21210         0.48107
H         19.61265         0.71726         2.36398
H         18.52712        20.24648         0.13348
H         21.79441         1.80018         2.01142
H         23.03454         3.94558         1.74978
H         23.00837         6.35391         1.38373
H         23.16587         8.09738         0.61735
H         23.25170        10.46351         0.07988
H         23.29237        12.32321        -0.55305
H         23.25840        14.75467        -0.66285
H         23.20205        16.66495        -0.53579
H         20.93296        20.29315        -0.04714
H         23.11489        19.10882        -0.25766
