         298
 CSIRO Nanostructure Databank - Neutral Graphene Oxide Data Set
C         30.66701        31.45696        -0.70019
C         30.93767        32.63449        -0.90519
C         31.23504        35.64582        -1.69516
C         31.06590        36.86889        -1.69901
C         30.55470        40.06531        -1.57875
C         30.42201        41.31754        -1.58993
C         33.02719        28.76845        -0.02494
C         31.96509        29.29521        -0.37485
C         32.50945        31.33480         0.99421
C         31.12800        30.36896         0.16928
C         32.75660        32.84530         0.75485
C         32.05116        33.47797        -0.45747
C         33.01322        35.87850        -0.08079
C         32.19800        34.89997        -0.87665
C         32.92667        37.22908        -0.22761
C         32.06904        37.92259        -1.33468
C         32.71274        40.18857        -0.35291
C         31.56142        39.28049        -0.88517
C         32.67439        41.68771        -0.51336
C         31.44533        42.30730        -1.89846
C         32.65695        44.29083        -1.22946
C         31.57177        43.71742        -1.46148
C         35.72048        27.28735         1.34431
C         35.40361        28.68970         1.03886
C         34.04062        29.27806         0.88541
C         35.47199        31.69671         1.89429
C         33.62903        30.45456         1.46061
C         35.25954        33.16230         1.79174
C         33.93622        33.72942         1.27648
C         35.17839        36.05730         1.17462
C         33.81408        35.31004         1.08083
C         35.21213        37.43390         0.54288
C         33.87170        38.15619         0.58124
C         35.18218        40.34311         0.26321
C         33.98287        39.54087        -0.05286
C         35.17508        41.85434         0.02648
C         34.02462        42.28240        -0.94417
C         35.13124        44.54619        -0.75791
C         33.98617        43.83203        -0.94665
C         35.34748        45.94902        -0.63016
C         37.95207        26.50712         2.31738
C         36.63010        26.52652         1.63875
C         37.91041        28.90339         1.82658
C         36.60651        29.52302         1.41811
C         37.79855        31.70706         0.99074
C         36.56982        31.01168         1.51562
C         37.80399        33.18680         1.41522
C         36.55331        33.94159         1.75328
C         37.78971        36.29307         1.51708
C         36.48255        35.44056         1.58629
C         37.82814        37.36975         0.42163
C         36.50716        38.15134         0.31225
C         37.84839        40.43015         0.54003
C         36.50873        39.65780         0.49187
C         37.77760        41.83450         0.00604
C         36.52982        42.40889        -0.46309
C         37.75947        44.68758        -0.72429
C         36.49395        43.88846        -0.80061
C         37.68658        46.19884        -0.85598
C         36.34150        46.66896        -0.43582
C         39.88467        24.55100        -0.20632
C         39.12356        25.01273         0.64766
C         40.20082        27.23400         0.78470
C         39.16175        26.27227         1.41259
C         40.21443        28.74621         0.91736
C         39.11526        29.49530         1.30642
C         40.34166        31.76634         1.08770
C         39.09268        31.01283         1.55564
C         40.26768        33.24188         0.83227
C         38.92849        33.99736         0.79629
C         40.38046        36.13076         1.18697
C         39.06522        35.42140         1.38160
C         40.38163        37.60010         0.76071
C         39.06030        38.27964         0.56135
C         40.28522        40.32690        -0.36541
C         38.95624        39.58985        -0.22861
C         40.19114        41.78712        -0.82860
C         39.06899        42.60170        -0.03070
C         40.23995        44.78449        -0.69588
C         38.95314        44.04666        -0.53169
C         40.28301        46.29180        -0.79061
C         38.93582        47.02315        -0.77857
C         40.16782        48.88626         0.11907
C         39.07636        48.35218        -0.17566
C         41.96601        24.87889        -1.77634
C         40.77275        25.32925        -1.07354
C         42.28776        27.48174        -0.89062
C         41.00240        26.73238        -0.43602
C         42.70274        28.69662        -0.01572
C         41.50603        29.45204         0.61031
C         42.70060        31.69615         0.02501
C         41.54339        30.96012         0.64401
C         42.70499        33.18450         0.01461
C         41.41135        34.00262         0.16960
C         42.83413        35.99337         0.36214
C         41.66094        35.29130         1.00005
C         42.78426        37.38265        -0.17767
C         41.41790        38.10018        -0.27914
C         42.77162        40.31567        -0.61094
C         41.46069        39.63215        -0.36597
C         42.80584        41.80327        -0.49010
C         41.51776        42.55291        -0.69045
C         42.71883        44.65527         0.16765
C         41.54206        44.03280        -0.51581
C         42.71186        46.15456         0.23383
C         41.57013        46.98289        -0.34741
C         42.73514        48.88074         0.55694
C         41.50426        48.45187         0.09435
C         43.05170        25.45725        -1.92475
C         44.80501        27.32615        -1.46965
C         43.61007        26.52088        -0.99247
C         44.91919        28.84878        -1.30810
C         43.68486        29.64011        -0.85323
C         45.18172        31.61328        -0.25083
C         43.99422        30.93855        -0.11945
C         45.25170        33.05617        -0.03156
C         44.02837        33.72529         0.54841
C         45.37225        35.99536         0.35484
C         44.11794        35.25225         0.62679
C         45.32319        37.53137         0.35286
C         44.08856        38.11739        -0.32674
C         45.36845        40.45824        -0.42864
C         44.08489        39.59333        -0.49964
C         45.18185        41.83017         0.20292
C         43.98437        42.50061         0.10934
C         44.96425        44.53643         1.27849
C         43.83023        43.90833         0.51732
C         44.86631        46.03040         1.56983
C         43.61291        46.83637         1.28812
C         43.83471        48.26717         0.78013
C         47.26738        27.31726        -1.30698
C         46.16283        26.75862        -1.36567
C         47.49096        28.67609        -0.67214
C         46.34191        29.53082        -1.38941
C         47.70881        31.51653        -0.10417
C         46.43555        31.05728        -0.91624
C         47.71128        33.01969        -0.02783
C         46.45335        33.73114        -0.10062
C         47.83500        35.95498        -0.32343
C         46.53049        35.22190        -0.18543
C         47.86863        37.47428        -0.35203
C         46.58009        38.21190        -0.18699
C         47.86060        40.35327         0.36284
C         46.56027        39.67282         0.14563
C         47.78996        41.87644         0.43966
C         46.45017        42.56122         0.52016
C         47.65162        44.59505         1.62700
C         46.29171        43.72942         1.48604
C         47.28230        46.00196         1.63416
C         46.21693        46.61663         1.61850
C         50.10334        28.59104        -0.61495
C         48.84931        29.36663        -0.91415
C         50.39726        31.22644         0.09760
C         48.98730        30.67653        -0.05949
C         50.62653        32.49813         0.53386
C         48.78736        33.76696         0.40356
C         50.42991        35.81748         0.04637
C         49.03249        35.20959         0.17120
C         50.49216        37.30679        -0.49464
C         49.22864        38.16122        -0.41338
C         50.08476        40.70530        -0.58041
C         49.26514        39.62326         0.18399
C         50.16926        42.15572        -0.00377
C         49.06189        42.46049         1.05717
C         50.30849        44.59892         1.18739
C         48.98716        43.96572         1.43271
C         51.24720        29.07155        -0.68090
C         52.68577        31.29437        -0.66193
C         51.69826        30.33422        -0.02910
C         52.83342        32.47134        -0.29055
C         51.81859        33.37082         0.29261
C         52.78595        35.58899        -0.60831
C         51.69690        34.87526         0.07890
C         52.90848        36.79472        -0.78035
C         52.20578        38.06403        -0.88824
C         52.43571        40.34106         0.33136
C         52.54128        39.13028         0.04665
C         52.54140        41.63396         0.79006
C         51.58152        42.56095         0.61207
C         51.33242        43.88128         1.09297
O         42.01226        30.17499         1.79234
O         36.56591        42.89342        -1.88538
O         31.91880        32.32837         1.83184
O         42.58709        32.47261        -1.24412
O         34.20814        33.57348         2.69701
O         39.89223        35.74081         2.52120
O         47.03959        37.91482        -1.50392
O         35.59754        36.06255         2.56934
O         42.75774        46.70525        -1.12236
O         42.96625        41.14405        -1.81527
O         37.50196        33.48667         2.78998
O         49.80765        37.71125        -1.67950
O         40.45102        26.49447         2.03243
O         39.83924        38.47625         1.77552
O         31.62079        39.60908         0.51457
O         47.30479        42.68623        -0.66259
O         44.23800        38.66484        -1.64559
O         50.40768        40.55641        -1.74894
O         47.12296        35.49137        -1.50376
O         36.32330        29.14293        -0.02062
O         35.68883        40.03394         1.64731
O         38.21847        46.84939        -2.01875
O         49.66268        33.15993         1.28784
O         44.61668        28.18550        -2.58785
O         40.69713        32.75280         2.12880
O         40.36530        45.50603        -1.98521
O         49.70966        35.85144         1.29889
O         47.03902        39.89097         1.49497
O         35.74484        37.59674        -0.80783
O         44.59057        45.07012         2.61167
O         42.77361        36.21648        -1.07849
O         48.42744        44.12894         2.75922
O         52.09862        34.31534         1.33944
O         34.40674        31.00473         2.48622
O         38.03412        27.95739         2.79297
O         48.09353        30.77294         1.07954
O         32.99171        33.85363        -1.49828
O         41.80648        43.42158        -1.83360
O         40.11734        26.49091        -1.59875
O         45.01753        35.57272         1.72921
O         30.25916        29.95320         1.13598
H         29.70163        30.69808         1.43765
O         34.27683        41.75235        -2.24423
H         35.14928        42.09826        -2.56021
O         48.98259        29.80278        -2.26080
H         48.84293        29.03444        -2.85520
O         46.14859        43.06524         2.74585
H         45.79846        43.71994         3.39248
O         32.91568        38.18672        -2.44182
H         33.25526        37.34182        -2.80377
O         43.03183        30.13001        -2.03325
H         43.21357        29.48696        -2.76026
O         33.04020        35.72255         2.21411
H         33.60518        35.60645         3.01267
O         39.61811        42.72798         1.31654
H         39.25465        41.97247         1.85281
O         52.10794        38.49640        -2.18125
H         51.54927        39.30841        -2.23814
O         38.49276        34.15308        -0.55994
H         39.22703        34.54310        -1.09597
O         38.44584        39.32577        -1.54379
H         38.81521        40.00507        -2.15846
O         43.89790        25.90341         0.22703
H         44.86801        25.78700         0.31546
O         52.12269        30.06069         1.28284
H         52.93799        29.51985         1.25533
O         39.81745        41.73821        -2.21026
H         40.38824        42.38407        -2.69463
O         32.20891        42.26898         0.65578
H         31.53368        41.67670         1.05355
O         42.03017        27.92449        -2.21326
H         41.34056        27.33696        -2.60731
O         43.47337        28.19706         1.08080
H         43.40155        28.84525         1.81950
O         44.01036        33.22612         1.91716
H         44.57287        33.82009         2.46338
O         41.00967        34.42541        -1.14540
H         41.37031        33.76322        -1.78525
O         49.37072        41.78647         2.28116
H         48.93249        42.28370         3.01310
O         37.81943        31.62775        -0.44161
H         37.35985        30.80265        -0.71834
O         38.26509        40.48459         1.93159
H         37.45333        40.43555         2.48648
O         45.19085        38.00965         1.70944
H         45.16287        37.23533         2.32176
O         38.00880        25.70042         3.42512
H         38.92794        25.65625         3.76024
O         45.74924        40.72511        -1.79305
H         44.92887        40.92994        -2.30081
O         40.82697        37.71171        -1.54339
H         41.34986        36.95871        -1.91052
O         49.92189        43.00376        -1.10405
H         50.26880        42.56826        -1.91593
O         34.93090        42.50207         1.28550
H         35.06434        41.84138         2.00292
O         46.63443        29.48808        -2.78177
H         46.90957        30.39270        -3.06895
O         47.19484        28.54219         0.69720
H         48.00673        28.31247         1.19491
O         38.04632        36.68975        -0.82370
H         38.09500        37.37555        -1.53202
O         46.55527        31.84644        -2.12989
H         45.65837        31.99989        -2.49684
O         42.83666        46.88210         2.47907
H         43.42854        47.02857         3.24623
O         39.00285        31.09059         2.98473
H         39.56900        31.83740         3.29147
O         42.16945        34.94870         2.28900
H         41.40895        34.73418         2.87908
O         33.44590        38.28330         1.93652
H         32.54228        38.67272         1.93481
O         37.84587        37.02625         2.73475
H         37.90068        36.40052         3.48628
O         31.88724        42.14097        -3.17772
H         32.55272        42.81869        -3.41121
O         49.83167        39.35117         1.46263
H         49.70077        40.12169         2.07088
