         204
 CSIRO Nanostructure Databank - Neutral Graphene Oxide Data Set
C        -11.04729         0.70889         0.52859
C         -9.91337         1.44151         0.01664
C         -8.89984         0.65126        -0.79933
C         -7.61226         1.44432        -1.08853
C         -6.31539         0.68173        -1.25897
C         -5.00260         1.46879        -1.37866
C         -3.77783         0.65567        -0.96166
C         -2.51833         1.41601        -1.07202
C         -1.19500         0.67326        -1.01701
C          0.05011         1.40215        -0.71102
C          1.23439         0.71790        -0.48748
C          2.48798         1.43703        -0.35680
C          3.70535         0.71749        -0.23203
C          4.94763         1.42255        -0.14338
C          6.17487         0.70120        -0.06618
C          7.41537         1.41228        -0.00129
C          8.64412         0.69235         0.03938
C          9.88598         1.41237         0.09983
C         11.11416         0.65502         0.12296
C         -9.84973         2.79884         0.17442
C         -8.72169         3.60611        -0.22464
C         -7.56051         2.93001        -0.87801
C         -6.23127         3.59110        -0.75050
C         -5.04271         2.89096        -0.81516
C         -3.79844         3.60421        -0.65487
C         -2.52134         2.80733        -0.46621
C         -1.26186         3.60143        -0.75718
C          0.05088         2.87407        -0.77422
C          1.28147         3.59740        -0.37725
C          2.50560         2.85641        -0.32491
C          3.73197         3.56195        -0.14698
C          4.96037         2.84383        -0.10446
C          6.19705         3.55494         0.00938
C          7.42512         2.83505         0.03757
C          8.66830         3.55084         0.12321
C          9.88430         2.80859         0.14117
C         -8.69412         4.93767         0.08205
C         -7.55882         5.80290        -0.26581
C         -6.22369         5.05853        -0.65343
C         -4.97376         5.75837        -0.34719
C         -3.75874         4.97805        -0.40567
C         -2.48186         5.64772        -0.17566
C         -1.28691         5.00204        -0.28582
C         -0.04619         5.62353         0.30479
C          1.25802         4.94969        -0.06926
C          2.48422         5.67863         0.11302
C          3.72606         4.97778         0.00317
C          4.95955         5.68497         0.12850
C          6.19616         4.97293         0.10198
C          7.43841         5.68791         0.20251
C          8.65207         4.96091         0.19594
C         -7.43574         7.14178         0.28378
C         -6.22592         7.82356         0.24505
C         -4.99702         7.10770         0.00898
C         -3.74273         7.81960         0.32851
C         -2.45986         7.07550         0.23099
C         -1.22522         7.86010        -0.18594
C          0.01331         7.10772         0.16155
C          1.21329         7.79067         0.72080
C          2.49282         7.07453         0.35204
C          3.70948         7.79320         0.39187
C          4.95139         7.09788         0.28300
C          6.19468         7.81158         0.36245
C          7.40702         7.10558         0.31355
C         -6.15225         9.24441         0.53338
C         -4.97984         9.95248         0.49552
C         -3.71085         9.29880         0.33991
C         -2.49167         9.96598         0.38834
C         -1.23246         9.29817         0.28458
C         -0.01614         9.96289         0.44067
C          1.23346         9.28092         0.47634
C          2.46412         9.93765         0.49979
C          3.69777         9.23117         0.50793
C          4.94844         9.91585         0.54970
C          6.14722         9.23989         0.49466
C        -11.01452        -0.64846         0.64242
C         -9.81303        -1.39661         0.34878
C         -8.68042        -0.73520        -0.21881
C         -7.48812        -1.43702        -0.38945
C         -6.27593        -0.78765        -0.95228
C         -4.97523        -1.48740        -0.79700
C         -3.74563        -0.74112        -0.90540
C         -2.47657        -1.46355        -0.80373
C         -1.23216        -0.78035        -0.78349
C         -0.01667        -1.44857        -0.49679
C          1.23351        -0.72764        -0.38969
C          2.43909        -1.40564        -0.17397
C          3.68953        -0.71111        -0.15153
C          4.92081        -1.42633        -0.05862
C          6.16027        -0.72347        -0.05086
C          7.40146        -1.44078        -0.01471
C          8.63505        -0.73002         0.02122
C          9.87514        -1.45678         0.05125
C         11.10851        -0.70918         0.09681
C         -9.74099        -2.75836         0.67826
C         -8.57155        -3.50127         0.45111
C         -7.41393        -2.82851        -0.06811
C         -6.21719        -3.55244        -0.31600
C         -4.98546        -2.88119        -0.59991
C         -3.72842        -3.62418        -0.62214
C         -2.47359        -2.89163        -0.71562
C         -1.24059        -3.57639        -0.61700
C         -0.01258        -2.88142        -0.41514
C          1.19253        -3.59629        -0.19175
C          2.41806        -2.84933         0.25025
C          3.70964        -3.58302        -0.00374
C          4.92129        -2.87027        -0.03095
C          6.16883        -3.58032        -0.03299
C          7.40162        -2.86527        -0.01664
C          8.64409        -3.58306         0.01342
C          9.86413        -2.85222         0.04241
C         -8.52972        -4.90525         0.76036
C         -7.41517        -5.66529         0.48912
C         -6.26101        -5.01310        -0.16566
C         -4.96125        -5.76292        -0.20090
C         -3.72347        -4.99378        -0.40956
C         -2.50550        -5.79620        -0.54990
C         -1.19056        -5.04060        -0.68583
C          0.03963        -5.75999        -0.34658
C          1.22935        -5.01969        -0.17620
C          2.47553        -5.72623        -0.03500
C          3.70834        -5.00261        -0.00899
C          4.94559        -5.71697        -0.00456
C          6.17436        -5.00162        -0.00776
C          7.42275        -5.71798         0.02370
C          8.62983        -4.99794         0.02728
C         -7.34149        -7.08825         0.73141
C         -6.15457        -7.78546         0.70171
C         -4.85493        -7.02013         0.63661
C         -3.63810        -7.84797         0.30198
C         -2.46434        -7.20094        -0.09139
C         -1.22062        -7.89358        -0.09021
C          0.02005        -7.17645        -0.20219
C          1.25093        -7.87206        -0.03782
C          2.48085        -7.14648        -0.01507
C          3.72276        -7.85483         0.05339
C          4.94508        -7.14443         0.03950
C          6.19978        -7.85257         0.07886
C          7.39848        -7.14499         0.06396
C         -6.07996        -9.21129         0.90855
C         -4.89882        -9.89652         0.86763
C         -3.63579        -9.24947         0.55682
C         -2.43691        -9.96331         0.45134
C         -1.20713        -9.29909         0.18802
C          0.03348        -9.98907         0.21770
C          1.25508        -9.30248         0.10802
C          2.50996        -9.98490         0.17367
C          3.71739        -9.29331         0.12726
C          4.98778        -9.97880         0.17013
C          6.16731        -9.29457         0.14082
O         -5.82342        -5.80056        -1.36272
O         -4.78694         1.69228        -2.79722
H         -5.14677         0.90493        -3.26772
O         -1.87282        -5.60992        -1.86098
O         -1.33717         7.91815        -1.66031
H         -0.51356         8.32187        -2.00726
O          2.30633        -2.79503         1.73844
H          3.09699        -2.31313         2.06439
O         -9.54228         0.41228        -2.08052
H         -9.27874         1.15680        -2.66993
O          1.14113         7.66739         2.21638
H          1.97161         8.05447         2.57005
O         -0.18692         5.32950         1.75777
H          0.26627         6.06556         2.24338
O         -4.61081        -6.51717         1.99898
H         -4.52869        -7.29510         2.59061
O         -2.47164         2.53741         0.97864
H         -2.35246         3.39608         1.44224
O         -7.08647         5.68611        -1.64316
O         -0.57671         3.41772        -2.02026
O         -7.82943         2.36538        -2.21252
O         -1.79468         1.14690        -2.29341
O         -6.44970        -0.28362        -2.35272
O         -3.01285         7.30475         1.54857
H         12.05661        -1.26691         0.11557
H         12.06667         1.20399         0.16293
H         10.84050         3.35056         0.19591
H          9.60523         5.50618         0.26729
H          8.35648         7.65818         0.37865
H          7.09402         9.79749         0.54284
H          4.94377        11.01281         0.63377
H          2.48902        11.03779         0.45387
H         -0.01895        11.05736         0.57444
H         -2.48917        11.05565         0.55290
H         -4.99699        11.04462         0.62895
H         -7.09968         9.77643         0.70532
H         -8.32212         7.61817         0.72897
H         -9.53449         5.38238         0.63731
H        -10.67662         3.31380         0.68932
H        -11.92583         1.27617         0.87125
H        -11.87844        -1.19317         1.05038
H        -10.62442        -3.25802         1.10282
H         -9.41793        -5.36831         1.21583
H         -8.27979        -7.62578         0.94182
H         -7.01904        -9.75594         1.09044
H         -4.89372       -10.98411         1.03220
H         -2.43290       -11.04913         0.62926
H          0.03779       -11.07723         0.38041
H          2.51422       -11.08194         0.25992
H          4.98662       -11.07763         0.22367
H          7.12342        -9.83795         0.17096
H          8.35304        -7.69208         0.09250
H          9.58487        -5.54395         0.05187
H         10.81629        -3.40341         0.06717
