         300
 CSIRO Nanostructure Databank - Neutral Graphene Oxide Data Set
C         30.59021        31.88989        -2.21817
C         30.60709        33.08985        -1.93222
C         30.26509        36.13317        -0.49956
C         30.18777        37.21176         0.09525
C         30.26268        40.50220         0.85751
C         30.30173        41.55671         1.50406
C         33.13754        29.12312        -2.16960
C         32.04011        29.67732        -2.27950
C         32.93282        31.80956        -1.53168
C         31.55632        30.91553        -1.60377
C         32.71351        33.11918        -0.74436
C         31.31646        33.87124        -0.86895
C         32.65272        36.08311        -0.38311
C         31.42617        35.37733        -1.07327
C         32.59358        37.41079        -0.07659
C         31.29207        38.19562        -0.02032
C         32.65301        40.49141         0.22635
C         31.28757        39.66710         0.23299
C         32.67279        41.83448         1.00310
C         31.40557        42.51825         1.54085
C         32.88154        44.14860         2.42895
C         31.76756        43.59134         2.48943
C         36.17770        27.70688        -2.29297
C         35.41207        28.82194        -1.01788
C         34.48608        29.70040        -1.84343
C         35.25910        31.68003        -0.29897
C         34.11293        30.97948        -1.00795
C         35.23850        33.14350        -0.23125
C         33.97431        33.88107        -0.41820
C         35.19361        36.00939         0.18861
C         34.00971        35.39491        -0.53026
C         35.10610        37.44318        -0.22669
C         33.84285        38.13910         0.27959
C         35.13450        40.37980         0.36783
C         33.86335        39.61306         0.54500
C         35.17565        41.66851         0.79000
C         34.04327        42.22326         1.63091
C         35.27962        44.48474         1.67687
C         34.16871        43.74190         1.94219
C         35.64812        45.84298         1.93865
C         37.93818        27.38550        -0.47712
C         37.13888        27.24489        -1.57359
C         37.64973        28.70484         0.25283
C         36.58256        29.56109        -0.41797
C         37.68406        31.35340         0.74934
C         36.50252        30.87664        -0.08109
C         37.73291        33.40551        -0.24776
C         36.40159        33.84904         0.43070
C         37.67171        36.04123         0.76046
C         36.37263        35.35575         0.33635
C         37.61510        37.55136         0.46619
C         36.34607        38.24812         0.09333
C         37.59975        40.49650        -0.15371
C         36.29219        39.71505        -0.39363
C         37.36886        41.97943        -0.45949
C         36.24825        42.57850         0.31939
C         37.54209        44.80668         0.37864
C         36.58032        43.81409         1.14415
C         37.91122        45.99661         1.27506
C         36.65090        46.57224         1.80407
C         40.33150        24.57183        -0.15493
C         39.28193        25.17388        -0.43723
C         40.35142        27.26209         0.14804
C         38.93793        26.50144         0.20643
C         40.25025        28.64837         0.79064
C         38.98519        29.42509         0.60660
C         40.26029        31.77407         0.43951
C         39.02987        30.91452         0.15041
C         40.26841        33.14901         0.36082
C         39.03300        33.96034         0.27096
C         40.30254        36.09583         0.30153
C         38.98759        35.32742         0.37405
C         40.18978        37.54062         0.73817
C         38.91982        38.30284         0.49801
C         40.22296        40.17213        -0.72525
C         38.92257        39.77916         0.06037
C         40.44158        41.66476        -0.78884
C         38.52893        42.85820        -0.65931
C         40.14523        44.71579        -0.42058
C         38.77202        44.07935        -0.14688
C         40.24160        46.13176         0.08442
C         39.29112        46.66924         1.07416
C         40.41278        48.70642         0.80798
C         39.47584        48.08863         1.39432
C         42.87122        24.45066         0.54637
C         41.60012        25.06788         0.31088
C         42.79573        27.19144         0.97229
C         41.56414        26.43929         0.59775
C         42.83700        28.69528         0.59661
C         41.54922        29.39002         1.07591
C         42.78804        31.68524         0.91527
C         41.59184        31.06482         0.16697
C         42.76529        33.17047         1.08558
C         41.61992        33.92105         0.38005
C         42.84162        36.12367         1.40616
C         41.40867        35.30104         1.06904
C         42.83279        37.59687         0.91919
C         41.49455        38.28679         0.64830
C         42.72959        40.23263        -0.47598
C         41.45317        39.57879        -0.08484
C         42.75553        41.70106        -0.26429
C         41.44227        42.40419        -0.22270
C         42.68265        44.54304         0.47240
C         41.28714        43.83680         0.30645
C         42.73462        46.07358         0.38733
C         41.51786        46.83093        -0.30117
C         42.89867        48.80170         0.05645
C         41.59080        48.37705         0.15379
C         43.94784        25.06395         0.67138
C         45.37367        27.26711         0.52279
C         44.17888        26.46105         0.98784
C         45.37616        28.65636         1.25160
C         44.06125        29.42329         1.16425
C         45.40474        31.60430         0.85515
C         44.06900        30.91500         1.17540
C         45.38257        33.10314         1.36175
C         44.05228        33.92713         1.53799
C         45.32991        35.98777         0.70783
C         44.14897        35.36223         0.97166
C         45.46679        37.50497         0.42528
C         44.10054        38.22117         0.40361
C         45.19733        40.17800        -0.90634
C         43.93095        39.33567        -0.62013
C         45.21131        41.73953        -0.68569
C         44.05981        42.23282         0.26825
C         45.33940        44.50795         0.51101
C         44.00553        43.76336         0.50611
C         45.33966        46.04478         0.55844
C         44.06107        46.81640         0.47470
C         43.99899        48.17045        -0.14177
C         47.77792        27.37075         0.96362
C         46.74231        26.72315         0.78256
C         48.01025        28.54677         1.84213
C         46.64996        29.38728         1.65253
C         47.88944        31.53075         1.19319
C         46.69825        30.87377         1.39595
C         47.86737        32.95693         0.68857
C         46.67463        33.80321         1.10956
C         47.83402        35.83822         0.09264
C         46.70462        35.34349         1.01271
C         47.74809        37.12230        -0.68567
C         46.36402        37.81843        -0.84672
C         47.79658        40.13489        -1.21323
C         46.45793        39.37715        -1.09105
C         47.81935        41.52143        -0.53427
C         46.54537        42.24457        -0.15507
C         47.91142        44.42136        -0.03576
C         46.61773        43.70221         0.23825
C         47.61874        45.78831        -0.04042
C         46.61926        46.55500         0.00920
C         50.48762        28.76937         1.10443
C         49.24876        29.36186         1.62012
C         50.52510        31.56295         0.95894
C         49.22753        30.87072         1.39170
C         50.48841        33.02001         0.55844
C         49.14732        33.68266         0.38859
C         50.41801        35.84805        -0.17247
C         49.17707        35.19303         0.36081
C         50.34535        37.27484        -0.66611
C         49.01179        37.87161        -1.17338
C         50.26550        40.14423        -1.30747
C         49.03997        39.35737        -0.73453
C         50.25752        41.50454        -1.36701
C         49.09091        42.27499        -0.78416
C         50.41231        44.24420        -0.74320
C         48.98375        43.80544        -0.90144
C         51.55496        29.36601         0.83798
C         52.76835        31.50454         0.01184
C         51.75416        30.73043         0.56152
C         52.69558        32.73322        -0.28152
C         51.64043        33.65792        -0.18411
C         52.62429        35.80532        -1.09276
C         51.60279        34.99143        -0.53153
C         52.64309        37.00217        -1.42651
C         51.57971        37.99615        -1.18634
C         52.61327        40.21846        -1.82698
C         51.43209        39.29857        -1.93394
C         52.67544        41.44467        -1.75822
C         51.49878        42.35734        -1.90244
C         51.41341        43.64275        -1.13051
O         38.94337        45.75967         2.18934
O         36.70407        38.15806         1.47622
O         45.64338        39.80397        -2.23653
O         51.19721        38.11703         0.18313
O         43.50384        26.86016         2.19116
O         39.36403        28.93178         1.92383
O         39.44387        42.27982        -1.54286
O         46.61605        42.61315         1.24753
O         41.37586        39.55187         1.36655
O         42.77669        41.11004        -1.65380
O         42.96165        36.15509         2.77174
O         43.93815        30.18172         2.40394
O         34.45286        35.81700        -1.89327
O         31.07660        39.13604        -1.09570
O         33.83053        38.67347         1.64844
O         36.22419        42.58994        -1.15407
O         45.50718        45.27397         1.74807
O         33.08399        33.25287         0.63124
O         42.29543        32.30623         2.15279
O         48.79172        41.75965         0.53774
O         31.95189        42.84579         0.23760
O         41.70397        30.82188        -1.11259
O         34.13911        30.89559         0.40613
O         50.10710        35.78160         1.27828
O         46.27834        33.35478         2.45362
O         37.60261        31.64596         1.92629
O         49.44717        30.27778         2.72182
O         50.84672        32.63116         1.91271
O         43.26855        44.07013         1.71681
O         43.17060        46.66688         1.62413
O         37.69527        32.94788        -1.38212
O         45.78071        28.75218         2.63553
O         36.07863        39.69975        -1.76111
O         39.43573        38.00059         1.87381
O         48.33533        33.11712        -0.68479
O         38.32037        40.54764         1.12997
O         34.91545        37.24837        -1.68980
O         45.52800        31.65623        -0.50758
O         43.64605        38.48885         1.74191
O         47.62828        35.81076        -1.33948
O         48.59724        44.08819        -2.25434
H         48.65100        45.05520        -2.40689
O         40.06075        39.62502        -2.04177
H         39.41611        40.17800        -2.53439
O         32.86877        40.84973        -1.14083
H         32.25081        41.57864        -1.36969
O         40.75960        43.67602         1.62857
H         41.50683        43.45665         2.23363
O         40.55032        27.56408        -1.25644
H         40.55531        26.71940        -1.75951
O         51.27524        42.62992        -3.26064
H         52.00255        43.18727        -3.60538
O         42.97412        28.76565        -0.81748
H         42.11653        28.54690        -1.25719
O         41.62335        29.68724         2.40769
H         40.71455        29.72569         2.79089
O         36.31909        33.56625         1.83665
H         36.81434        34.26762         2.32821
O         34.05118        41.53028         2.89275
H         34.97067        41.47041         3.22747
O         44.21817        41.58541         1.53466
H         44.95103        42.02291         2.02915
O         45.81296        37.22414        -2.00910
H         44.99899        37.72168        -2.27346
O         37.27393        43.29298         2.28254
H         37.75542        44.01200         2.74738
O         40.39438        44.70835        -1.83649
H         40.11984        43.82811        -2.19078
O         49.04667        39.25258         0.68364
H         49.23993        40.13034         1.08934
O         43.56946        38.60330        -1.82812
H         43.34931        39.26466        -2.52229
O         33.24441        32.24843        -2.84818
H         33.58092        31.49168        -3.37899
O         45.20151        27.45971        -0.87138
H         45.93487        27.99916        -1.23182
O         48.06526        28.07937         3.17693
H         48.39858        28.80373         3.74896
O         42.04809        34.07969        -0.99302
H         42.09249        33.18750        -1.40830
O         46.20647        38.11209         1.49011
H         45.65233        38.07352         2.30257
O         34.75770        28.04448        -0.12975
H         35.34295        27.83479         0.63703
O         31.13553        30.64323        -0.29576
H         30.40271        29.99405        -0.31317
O         35.13738        30.15101        -3.01291
H         35.62251        29.38141        -3.40113
O         48.99251        37.77562        -2.60048
H         48.43104        37.01050        -2.85538
O         48.02419        40.39192        -2.61132
H         47.14911        40.42242        -3.06365
O         40.62898        36.26310        -1.09561
H         40.98415        35.40860        -1.45036
O         36.98750        28.32114         1.48351
H         37.68502        28.21080         2.17812
O         36.83717        45.32790        -0.75452
H         36.50563        44.56848        -1.29191
O         45.06666        42.38283        -1.95894
H         44.31421        41.95214        -2.42989
O         43.92579        34.12207         2.94077
H         43.21949        33.52478         3.28520
O         37.69801        35.91010         2.21153
H         38.30624        36.61293         2.55799
O         30.63631        33.65781         0.34858
H         30.61001        32.69400         0.53632
O         51.16507        39.04045        -3.29146
H         50.93169        39.87982        -3.73945
O         38.61316        26.28334         1.56308
H         37.77587        25.77838         1.61958
O         40.84235        35.01379         2.34063
H         41.47374        35.39583         3.01898
O         47.06776        35.81310         2.31839
H         46.55077        35.29431         2.97734
O         38.95186        30.79886        -1.27836
H         39.88660        30.79611        -1.61975
O         31.54999        35.61949        -2.45572
H         31.57644        36.58479        -2.62316
O         41.77940        46.83225        -1.69394
H         41.04648        46.38797        -2.17862
