         320
 CSIRO Nanostructure Databank - Neutral Graphene Oxide Data Set
C         30.80206        31.48165         1.18889
C         30.59170        32.68508         0.86112
C         30.55195        35.87448         0.87337
C         30.57714        36.89720         1.56907
C         30.86742        40.19784         2.17420
C         30.94248        41.32411         2.66697
C         33.43721        28.76839         1.06798
C         32.29826        29.33653         1.24934
C         33.23274        31.51749         0.77239
C         31.92994        30.65498         1.11102
C         32.85371        32.83069         0.06723
C         31.76248        33.65101         0.87449
C         32.95970        35.76770         0.67014
C         31.64138        35.04549         0.25471
C         32.93502        36.90855         1.42450
C         31.73169        37.82780         1.44683
C         33.24796        40.02465         1.57572
C         31.83701        39.30595         1.53970
C         33.11924        41.59330         1.59197
C         32.20097        42.13065         2.81174
C         33.20633        44.25817         2.15285
C         32.24732        43.60594         2.58194
C         35.45042        27.15130        -0.80705
C         35.59619        28.59335        -0.29004
C         34.36502        29.35627         0.10900
C         35.18220        31.47174        -1.00525
C         34.26218        30.72577        -0.02319
C         35.29956        32.99033        -0.75376
C         34.10124        33.70593        -0.21299
C         35.45116        35.84386        -0.13880
C         34.29616        35.04293         0.51020
C         35.49641        37.32038        -0.09925
C         34.25289        38.15557        -0.24791
C         35.53075        40.22004         0.57806
C         34.15476        39.62009         0.31158
C         35.54967        41.69867         0.86083
C         34.50853        42.26867         1.53414
C         35.66244        44.53725         1.44033
C         34.62525        43.68726         2.15719
C         36.12695        45.77087         2.20483
C         37.83490        27.14541        -1.45396
C         36.49714        26.66774        -1.26830
C         37.85479        28.61979        -1.44875
C         36.48419        29.28977        -1.39889
C         37.81470        31.52669        -1.09293
C         36.53611        30.76585        -1.02234
C         37.78178        33.01603        -1.08219
C         36.61616        33.69383        -0.75038
C         37.74580        35.90895        -1.07506
C         36.56570        35.14397        -0.57846
C         37.96699        37.30900        -0.51187
C         36.65707        38.03753        -0.27743
C         37.86094        40.34072        -0.53482
C         36.74277        39.49570         0.08425
C         38.06562        41.72009         0.11378
C         36.77030        42.49846         0.37493
C         38.30162        44.47237         1.09508
C         37.01763        43.66843         1.36043
C         38.47350        45.93921         1.52168
C         37.17113        46.40357         1.99354
C         40.14065        24.33897        -0.70397
C         39.16453        25.02595        -1.08953
C         40.31869        27.10002        -1.44784
C         38.98773        26.41096        -1.36917
C         40.32514        28.60509        -1.62191
C         39.02883        29.32529        -1.50972
C         40.32433        31.54946        -1.28438
C         39.03709        30.84125        -1.69928
C         40.25586        33.01220        -1.30875
C         39.04539        33.68939        -1.29982
C         40.29371        35.86083        -1.80921
C         38.97676        35.16171        -1.49494
C         40.26253        37.41618        -1.71250
C         38.94439        38.18124        -1.34893
C         40.29033        40.38757        -1.24111
C         39.22521        39.54201        -0.56583
C         40.31618        41.86564        -0.96410
C         39.20003        42.43258        -0.15143
C         40.54423        44.66692        -0.10214
C         39.27166        43.90482         0.11222
C         40.81936        46.06837         0.45680
C         39.56315        46.75207         0.98166
C         40.80554        48.81394         0.76685
C         39.77026        48.12627         1.09109
C         42.43409        24.62423         0.60348
C         41.11674        25.13774         0.13993
C         42.53758        27.35248        -0.21739
C         41.56333        26.36438        -0.92362
C         42.85908        28.66682        -0.96618
C         41.63313        29.42609        -1.59582
C         42.84291        31.61526        -1.04686
C         41.50753        30.87241        -1.14055
C         42.62901        33.05933        -0.50380
C         41.57784        33.77417        -1.42806
C         42.76994        35.97049        -1.00022
C         41.42424        35.24198        -0.96611
C         42.82411        37.41994        -1.25499
C         41.57016        38.14791        -1.62753
C         42.88525        40.36707        -1.78330
C         41.54612        39.66976        -1.60201
C         42.87840        41.85033        -1.40339
C         41.60937        42.60830        -1.17647
C         42.90515        44.76346        -0.97476
C         41.81898        43.89151        -0.37965
C         42.88454        46.13929        -0.99062
C         41.52698        46.81363        -0.73838
C         42.95861        48.91120        -0.61898
C         41.52272        48.75420        -0.51678
C         43.38075        25.36610         0.90202
C         44.74956        27.54372         1.11160
C         43.92014        26.59809         0.24470
C         45.28531        28.74316         0.18623
C         44.08265        29.43256        -0.51527
C         45.25395        31.69278        -0.21126
C         43.91082        30.91456        -0.15770
C         45.05595        33.18136         0.05173
C         43.92983        33.84988        -0.36974
C         45.11214        36.12733        -0.14469
C         43.88513        35.30613        -0.53028
C         45.31498        37.40790        -0.96812
C         43.98811        38.13267        -1.12924
C         45.36900        40.28668        -1.28130
C         43.98462        39.63943        -0.98829
C         45.33440        41.79682        -0.89271
C         44.06213        42.51209        -1.28548
C         45.38653        44.73921        -1.58455
C         44.09191        43.99892        -1.38940
C         45.34060        46.22879        -1.41104
C         44.13990        46.87335        -1.21357
C         43.95467        48.29588        -1.01994
C         47.02855        27.69315         2.06190
C         46.04092        27.05718         1.68336
C         47.55851        28.97508         1.45703
C         46.27693        29.67531         0.88879
C         47.56336        31.77594         0.99625
C         46.28858        31.01539         0.69694
C         47.44873        33.26370         1.00306
C         46.15192        33.98150         0.71180
C         47.55698        36.07167         0.46650
C         46.39204        35.27094        -0.08699
C         47.50996        37.58801         0.50660
C         46.40963        38.25148        -0.31281
C         47.64478        40.38607         0.06004
C         46.46375        39.59142        -0.49319
C         47.81235        41.80136        -0.52268
C         46.66199        42.50374        -1.18994
C         47.82442        44.75062        -0.69051
C         46.74537        44.01349        -1.56991
C         47.80705        46.17307        -1.29442
C         46.68484        46.71026        -1.37711
C         49.15175        29.49446         3.48762
C         48.29227        29.88039         2.40636
C         49.16654        32.21552         2.98749
C         48.34103        31.23367         2.16889
C         49.61728        33.41104         2.14375
C         48.57236        34.00262         1.32863
C         49.86753        36.21503         1.41675
C         48.62637        35.43736         1.01988
C         50.10437        37.39974         0.44715
C         48.87044        38.15520         0.09194
C         50.19289        40.30339         0.29590
C         48.95332        39.62464        -0.30741
C         50.17820        41.78449         0.50665
C         48.92002        42.62440         0.17115
C         50.34112        44.56980         0.04557
C         49.15560        43.96299        -0.67128
C         50.06350        30.16258         4.04454
C         51.41972        32.38222         3.92350
C         50.35478        31.51096         3.80954
C         51.63438        33.50205         3.35982
C         50.81938        34.09854         2.36199
C         52.20991        36.25769         1.83854
C         51.11427        35.28591         1.49478
C         52.32122        37.40781         1.40932
C         51.53786        38.06475         0.28607
C         52.55208        40.46381         0.28652
C         51.49099        39.56225         0.25125
C         52.67660        41.72758         0.24585
C         51.69986        42.66164         0.91394
C         51.37621        43.98293         0.37862
O         40.59671        42.62817        -2.19583
O         39.50797        44.68350        -1.10751
O         34.37586        33.75688        -1.62682
O         47.65547        41.77482        -1.96757
O         44.58993        44.35349        -2.75211
O         33.46353        37.82848        -1.12250
O         38.98213        44.82300         2.34662
O         36.44965        39.58000         1.52945
O         40.95293        37.82184        -2.92069
O         42.08554        32.99499         0.78316
O         49.96611        40.91477         1.64414
O         40.57086        40.11775        -2.62646
O         37.98310        35.63454        -2.48190
O         37.48099        40.65318        -1.83551
O         43.98168        28.88262        -1.86276
O         37.33295        30.97362         0.18045
O         49.50186        37.24970        -0.87093
O         31.56781        38.68805         0.27152
O         48.40091        31.48980        -0.26585
O         40.43882        27.67770        -2.78207
O         43.94716        28.03880         2.15784
H         44.46128        28.68571         2.68265
O         40.73527        46.72941        -1.87467
H         41.28698        46.76178        -2.68229
O         43.48547        30.88067         1.20895
H         42.85676        31.65400         1.35352
O         41.95280        29.60120        -3.01023
H         41.85519        28.71488        -3.43607
O         44.63638        26.21564        -0.90046
H         44.05124        25.65127        -1.45813
O         39.71859        39.35806         0.74807
H         39.18170        38.66966         1.21493
O         47.48500        40.47061         1.48151
H         46.63282        40.94958         1.62714
O         46.75520        34.80913        -1.40408
H         46.65860        35.56537        -2.03531
O         47.27190        37.90616         1.90712
H         46.36134        37.57425         2.10324
O         49.67015        36.74915         2.73618
H         48.83148        37.27744         2.72813
O         34.96789        43.54297         3.52164
H         35.31576        44.40460         3.83945
O         42.05781        33.80273        -2.75296
H         42.36659        32.90191        -3.02455
O         43.19348        40.29414        -3.18090
H         42.35683        40.45703        -3.67119
O         31.51105        34.95846        -1.15132
H         31.59030        35.86034        -1.52982
O         40.52019        35.54451        -3.18132
H         39.72375        35.81783        -3.68543
O         49.73188        31.97943        -0.02582
H         49.84733        32.66442        -0.73036
O         45.66671        40.08851        -2.66992
H         46.54658        40.50571        -2.84019
O         32.16501        33.84830         2.22345
H         32.15145        32.98528         2.69233
O         40.95921        35.28182         0.38851
H         41.35687        34.48924         0.86530
O         45.79874        31.58497        -1.54480
H         46.45032        32.30760        -1.67435
O         33.84893        31.85145         2.03408
H         34.25577        31.03613         2.39986
O         45.65595        34.32952         2.05303
H         45.29792        33.51365         2.46450
O         48.43694        28.69537         0.39076
H         47.90273        28.26593        -0.32136
O         48.28080        32.76225         3.99345
H         48.74263        33.49804         4.44944
O         36.42409        42.96507        -0.93638
H         36.65677        42.22806        -1.57379
O         52.08301        37.59928        -0.93306
H         52.03026        36.61670        -0.93055
O         38.56247        37.06878         0.79750
H         37.91371        36.58243         1.34947
O         49.08504        39.67766        -1.73266
H         49.55673        38.86055        -2.01811
O         35.22024        44.91102         0.17246
H         34.24129        44.98634         0.18428
O         43.39209        31.68163        -2.36805
H         43.30629        30.78651        -2.78749
O         47.27722        44.89840         0.59437
H         47.98454        45.14641         1.22659
O         45.77123        37.11178        -2.31246
H         45.76317        37.96592        -2.81051
O         40.42803        25.68091         1.24019
H         40.18838        24.95644         1.85441
O         37.21113        43.02592         2.61796
H         37.79343        43.59746         3.16977
O         42.32920        43.42571         0.90098
H         42.38507        44.21052         1.49886
O         33.67031        40.30839        -0.85619
H         33.06952        39.67602        -1.32506
O         40.82816        49.27403        -1.57254
H         39.86717        49.15042        -1.43494
O         48.41779        42.99426         1.46088
H         48.46147        42.18142         2.02128
O         32.29604        32.43094        -1.18958
H         31.94484        33.24564        -1.62876
O         38.27216        38.51519        -2.54384
H         38.86216        39.10492        -3.07173
O         34.78954        34.74679         1.85863
H         34.06361        34.25244         2.31864
O         45.28538        41.86127         0.57474
H         44.42049        41.46530         0.85416
O         32.80848        41.83857         4.04440
H         32.32768        42.28723         4.76975
O         32.38881        42.07020         0.46431
H         32.81066        41.72252        -0.35975
O         47.20536        44.08527        -2.93123
H         46.42707        43.94293        -3.51767
O         34.57768        31.31242        -2.30495
H         33.72101        31.81612        -2.27627
O         51.39127        34.82281         0.16209
H         52.14858        34.20090         0.20274
O         34.00146        37.27324         2.16622
H         34.60601        36.48961         2.25263
O         44.84958        36.65316         1.19503
H         44.77564        35.86704         1.79618
O         46.13040        28.18390        -0.82979
H         45.58001        28.03287        -1.63663
O         51.83479        42.63563         2.27950
H         51.61421        41.73346         2.60369
O         49.60055        43.61918        -1.95641
H         48.94530        43.89502        -2.64124
O         36.37033        28.50387         0.89428
H         35.79320        28.17318         1.61540
O         41.82711        27.88130         0.90105
H         41.56197        27.15112         1.50799
O         38.92198        31.05606        -3.13074
H         39.69482        30.63520        -3.56609
O         35.91223        29.08610        -2.68649
H         35.20393        29.75790        -2.84120
O         43.64100        39.84894         0.41676
H         44.00156        39.09945         0.94054
O         42.23329        25.74508        -2.01749
H         41.60099        25.14165        -2.46529
O         41.77449        45.97776         1.53429
H         41.74877        46.82188         2.03614
O         33.93580        39.65122         2.75752
H         33.78781        40.32831         3.45810
