         349
 CSIRO Nanostructure Databank - Neutral Graphene Oxide Data Set
C          1.46923         2.30224        -1.18756
C          1.55885         3.69346        -1.53291
C          2.56694         1.57330        -0.81147
C          2.74502         4.38309        -1.54036
C          1.90962         6.52348        -2.78010
C          2.05590         7.90015        -2.98028
C          2.74090         5.83301        -1.86079
C          3.14006         8.64745        -2.42831
C          2.49059        10.89473        -3.34667
C          2.45835        12.25340        -3.25178
C          3.31869        10.07759        -2.50876
C          3.10279        12.97042        -2.09776
C          2.84623        15.23991        -3.30871
C          3.17418        16.63793        -3.43415
C          3.40333        14.44888        -2.34279
C          3.96139        17.30225        -2.52218
C          4.53257        18.62027        -2.77692
C          3.87908         2.15750        -0.81901
C          4.04244         3.52795        -1.44679
C          4.98825         1.45826        -0.38186
C          5.31978         4.15939        -0.93593
C          3.67217         6.66257        -1.20416
C          4.05195         7.93921        -1.59425
C          5.38711         5.44839        -0.57584
C          5.45216         8.54076        -1.47917
C          4.33283        10.73280        -1.69519
C          4.29077        12.18710        -1.53604
C          5.35682         9.99512        -1.09453
C          5.24153        12.82179        -0.77734
C          4.18582        15.10476        -1.27684
C          4.39123        16.60145        -1.30124
C          5.29450        14.29778        -0.69232
C          5.36011        17.32004        -0.36929
C          5.60877        19.10405        -2.11469
C          6.35688        18.29515        -1.07364
C          6.32817         1.99257        -0.29853
C          6.61308         3.36666        -0.89403
C          7.35534         1.29551         0.29200
C          7.69463         4.08518        -0.07982
C          6.62174         6.23789        -0.59673
C          6.60765         7.73784        -0.79364
C          7.73802         5.50419         0.00392
C          7.63440         8.43332         0.01487
C          6.54410        10.63620        -0.51031
C          6.46481        12.12829        -0.30680
C          7.56205         9.83737         0.23959
C          7.32656        12.76592         0.72284
C          6.34183        14.96129         0.14433
C          6.22339        16.40363         0.47577
C          7.23402        14.10767         0.97033
C          7.10711        17.02342         1.29457
C          6.94814        19.17695         0.05424
C          7.04991        18.52569         1.41079
C          8.63368         1.91063         0.63293
C          8.72423         3.36263         0.51598
C          9.65082         1.20974         1.22317
C          9.85945         4.06073         1.07506
C          8.83237         6.22887         0.47129
C          8.74827         7.69290         0.55204
C          9.92666         5.50167         1.01636
C          9.79600         8.35627         1.18124
C          8.48858        10.48491         1.05610
C          8.35914        11.91427         1.37834
C          9.61238         9.73186         1.75061
C          9.60526        12.61925         1.90623
C          8.32538        14.82003         1.69115
C          8.32716        16.31385         1.76607
C          9.61826        14.08143         1.57935
C          9.62071        17.15259         1.73765
C          8.27380        19.18600         0.87373
C          9.54536        18.39750         0.84194
C         10.87551         1.85065         1.82465
C         10.91387         3.35218         1.64898
C         12.16838         1.25534         1.30091
C         12.11450         4.06354         2.07459
C         11.07986         6.20253         1.45624
C         11.13920         7.67895         1.14783
C         12.20304         5.52150         1.92338
C         12.24150         8.40469         1.86042
C         10.92956        10.50915         1.84273
C         10.89238        11.88382         1.95798
C         12.16804         9.77369         2.02398
C         12.13162        12.67510         2.14136
C         10.87063        14.85750         1.49158
C         10.86183        16.33871         1.40379
C         12.13636        14.17830         1.88560
C         12.00588        16.94147         0.96714
C         10.70739        18.97539         0.42543
C         12.01656        18.35434         0.60276
C         13.37791         1.91132         1.40429
C         13.45688         3.27449         1.98963
C         14.59600         1.33497         0.92651
C         14.70690         4.04833         1.88166
C         13.45930         6.21119         2.09010
C         13.46843         7.63969         2.05411
C         14.69579         5.48363         2.10696
C         14.69842         8.32931         2.06048
C         13.42758        10.49663         2.49021
C         13.43947        11.97588         2.10932
C         14.63908         9.82046         1.81368
C         14.59014        12.66465         1.86526
C         13.34091        14.81582         1.39447
C         13.25520        16.15489         0.81673
C         14.58746        14.01990         1.18269
C         14.55460        16.93549         0.66530
C         13.20091        19.03458         0.42614
C         14.50388        18.41750         0.62982
C         15.81994         2.01251         1.00516
C         15.86464         3.37426         1.50157
C         17.03125         1.40174         0.56914
C         17.18052         4.01343         1.65698
C         15.91798         6.20950         2.06274
C         15.91287         7.62095         2.01807
C         17.21138         5.50052         1.98797
C         17.19477         8.34054         1.80412
C         15.92414        10.53299         2.18291
C         15.91484        12.02312         2.07601
C         17.19242         9.82881         1.84001
C         17.17072        12.71029         1.70853
C         15.79086        14.88702         1.52794
C         15.81675        16.29039         1.09791
C         17.13704        14.17903         1.67042
C         17.00118        16.99646         1.13268
C         15.66057        19.12556         0.76883
C         17.00500        18.51211         1.08932
C         18.26080         2.07972         0.52169
C         18.36312         3.43199         1.00319
C         19.45057         1.41615         0.08209
C         19.54849         4.17522         0.87339
C         18.46684         6.24178         1.70404
C         18.47688         7.61761         1.82557
C         19.64639         5.52700         1.28059
C         19.80873         8.32545         1.99594
C         18.45724        10.60493         2.01810
C         18.40047        12.04178         1.65866
C         19.76240         9.85990         1.91304
C         19.60913        12.72776         1.37752
C         18.31812        14.92396         1.25060
C         18.27092        16.29803         1.12644
C         19.45745        14.07655         0.70934
C         19.54979        17.10253         0.89964
C         18.12678        19.03273         0.20894
C         19.32140        18.41686         0.17671
C         20.65437         2.10163        -0.05759
C         20.63791         3.61193        -0.01106
C         21.84703         1.45280        -0.43172
C         21.99417         4.24297         0.19896
C         20.85141         6.29292         0.98752
C         20.88183         7.65850         1.17266
C         22.05580         5.61674         0.51687
C         22.04773         8.42686         0.70811
C         20.90543        10.63094         1.40771
C         20.85610        12.03056         1.29111
C         22.05311         9.92624         0.81740
C         22.09030        12.73621         0.94393
C         20.72563        14.89582         0.71975
C         20.60038        16.27334         0.10071
C         22.04341        14.21234         0.83684
C         21.90766        17.01967         0.03997
C         20.48749        19.00812        -0.59542
C         21.83670        18.38922        -0.28779
C         23.07596         2.14280        -0.52826
C         23.16084         3.53961        -0.14999
C         24.23513         1.48360        -0.99019
C         24.44061         4.19296        -0.12024
C         23.29840         6.31405         0.45453
C         23.34143         7.73671         0.57393
C         24.51686         5.60739         0.18811
C         24.54138         8.46762         0.50167
C         23.34602        10.62585         0.77120
C         23.29231        12.07019         0.78768
C         24.53286         9.91093         0.63504
C         24.54648        12.78349         0.33291
C         23.25818        14.95063         0.43688
C         23.16121        16.36719         0.17723
C         24.47544        14.29220         0.40231
C         24.35585        17.10611        -0.04414
C         23.00956        19.12574        -0.46658
C         24.28616        18.50889        -0.35873
C         25.47048         2.14484        -1.04413
C         25.57923         3.48308        -0.54077
C         26.62032         1.50983        -1.60705
C         26.91140         4.08496        -0.40640
C         25.73544         6.32018         0.13776
C         25.79073         7.75356         0.28582
C         26.99271         5.56661         0.02264
C         27.01600         8.45327         0.21629
C         25.81505        10.63374         0.88285
C         25.81166        12.14774         0.91885
C         27.09554         9.87246         0.66271
C         27.09480        12.94394         0.78797
C         25.68983        15.03711         0.25605
C         25.62192        16.45369         0.04427
C         26.94748        14.40024         0.47025
C         26.81389        17.21843        -0.15508
C         25.47128        19.23987        -0.59461
C         26.75018        18.63107        -0.50023
C         27.81930         2.19278        -1.77707
C         28.00998         3.51076        -1.21253
C         28.88573         1.60851        -2.54900
C         29.14857         4.24173        -1.52547
C         28.26693         6.31086        -0.22446
C         28.25195         7.80326        -0.17853
C         29.38414         5.59914        -0.98454
C         29.40973         8.49174        -0.48010
C         28.37318        10.64289         0.42636
C         28.39933        12.15881         0.47654
C         29.60577         9.97178        -0.18530
C         29.43111        12.81843        -0.37121
C         28.05532        15.25714         0.49492
C         28.04728        16.57350        -0.00997
C         29.72183        14.14345        -0.21239
C         29.34579        17.23192        -0.32212
C         27.92525        19.34923        -0.74601
C         29.26096        18.75316        -0.65480
C         29.98001         2.34354        -2.89318
C         30.11566         3.70781        -2.45461
C         31.13274         4.52016        -2.94391
C         30.42747         6.43419        -1.59983
C         30.68512         7.78875        -0.94704
C         31.25759         5.87791        -2.54355
C         31.47014         8.67032        -1.88416
C         30.22535        10.71848        -1.35857
C         30.16620        12.09925        -1.40596
C         31.18598         9.96554        -2.13283
C         31.04115        12.90191        -2.26458
C         30.15431        15.02167        -1.35650
C         30.43909        16.47236        -0.97424
C         31.13185        14.25113        -2.19997
C         31.50817        17.16064        -1.48888
C         30.37958        19.32835        -1.40322
C         31.49724        18.58850        -1.65222
O          7.12585         6.82184        -1.85371
O         29.69908        18.23485         0.65578
O         29.29951        14.79336         0.94981
O         15.97608        11.29678         3.40618
O         21.37639        14.88503         2.01701
O          6.57240        14.76008        -1.29846
O         25.69904        11.40237         2.14303
O         28.11120        12.67837         1.79027
O          8.56094        12.21237         2.82770
O         27.18088         4.48589         0.97868
O          7.22565        11.57157        -1.43648
O          3.35522        15.98286        -0.44757
O          8.12297        15.49909         2.97619
O         12.77307         3.48243         3.25734
O         28.08828        10.05254         1.73123
O         13.93168        16.30585        -0.51215
O         29.39056         5.72026         0.49481
O         16.39038        14.70673         2.83263
O         10.26317        14.27530         0.26809
O         12.09062        13.64231         3.26163
O         17.40843         4.49679         3.03114
O          4.27702         6.12003        -0.07111
O         19.23655        10.36646         3.21958
O         21.70087         9.26805        -0.47924
O         17.11667         9.18788         0.52636
O         31.50565         7.49519         0.21507
H         30.98689         6.86186         0.76633
O         20.24001         4.02390        -1.37326
H         20.89892         3.64741        -1.99481
O         10.80955         1.56475         3.26187
H         11.55714         2.06029         3.67729
O         24.68154        12.48745        -1.10432
H         23.86820        12.79577        -1.55775
O         14.46660        10.00020         0.38847
H         15.26433         9.62486        -0.05484
O          4.53203        18.14003         0.49319
H          3.71829        17.61674         0.67547
O         30.62410        10.04032         0.85002
H         30.19072         9.77018         1.69042
O         19.09080        13.74112        -0.66003
H         19.20057        14.56052        -1.20444
O          6.35975        19.06853         2.51080
H          5.40370        18.90469         2.35540
O         14.70865        13.71650        -0.24626
H         14.46588        14.54312        -0.73671
O          9.80254        17.66484         3.08517
H          9.40595        17.01059         3.70360
O         13.50284        10.35043         3.91542
H         14.30287        10.83992         4.22335
O         20.22479         8.02185         3.37095
H         19.80857         8.69990         3.95383
O         20.09623        17.42390         2.20002
H         20.52406        16.61278         2.56275
O          5.84818         8.64985        -2.88620
H          6.33931         7.82675        -3.11930
O          7.35541        17.50164        -1.72435
H          7.91320        18.08457        -2.27793
O         11.54404         7.74556        -0.27578
H         10.82708         7.33964        -0.81014
O          7.13951         3.17468        -2.22979
H          6.36072         3.04386        -2.81965
O         17.33791        18.94588         2.44445
H         18.21128        18.55116         2.67117
O          9.18419         9.53500         3.14827
H          8.95098        10.43142         3.49461
O         20.21896        18.76938        -2.00442
H         20.99424        19.07966        -2.51763
O          4.35581         3.25812        -2.86939
H          3.61523         2.72694        -3.23385
O         20.11513        16.10244        -1.25783
H         20.06819        16.99549        -1.69284
O          2.09235        12.98885        -1.02835
H          1.77556        12.06890        -0.90668
O         28.93489        15.13696        -2.20314
H         29.22699        15.41397        -3.09806
H          0.47374         1.83719        -1.16794
H          0.61939         4.23544        -1.71846
H          2.45203         0.53398        -0.46953
H          1.12300         5.98270        -3.32670
H          1.33886         8.40786        -3.64170
H          1.88220        10.39863        -4.11811
H          1.79898        12.82188        -3.92306
H          2.20224        14.80411        -4.08633
H          2.84628        17.16213        -4.34427
H          4.08024        19.21695        -3.58501
H          4.83474         0.43534         0.00181
H          6.00623        20.09481        -2.38753
H          7.18121         0.26386         0.63863
H          6.49591        20.18401         0.07812
H          9.54460         0.12414         1.37246
H          8.44630        20.21666         1.23621
H         12.14568         0.24127         0.87479
H         10.67726        19.96157        -0.06477
H         14.57032         0.31446         0.51780
H         13.17481        20.10872         0.18666
H         16.98932         0.36108         0.21387
H         15.62173        20.22617         0.74749
H         19.41446         0.33259        -0.10852
H         17.98792        19.99548        -0.30845
H         21.83045         0.36941        -0.62604
H         20.53150        20.12017        -0.42946
H         24.16457         0.43806        -1.32397
H         22.95097        20.19537        -0.72026
H         26.51712         0.49078        -2.00758
H         25.40269        20.30959        -0.84181
H         28.76711         0.57665        -2.90988
H         27.84765        20.37989        -1.12595
H         30.76432         1.91729        -3.53516
H         31.85194         4.10985        -3.66656
H         32.07450         6.45921        -2.99040
H         32.32343         8.22095        -2.41058
H         31.79212        10.49436        -2.88234
H         31.70825        12.37498        -2.96091
H         31.82666        14.78408        -2.86678
H         32.34419        16.60902        -1.94422
H         30.30726        20.36933        -1.75144
H         32.35648        19.05157        -2.15815
