         320
 CSIRO Nanostructure Databank - Neutral Graphene Oxide Data Set
C         30.38295        31.50784         1.42333
C         30.50763        32.79879         1.21759
C         30.31354        35.97335         0.87863
C         30.41829        37.19941         0.94415
C         30.59524        40.51288         1.04960
C         30.69005        41.73739         1.12126
C         32.91019        28.76678         1.72129
C         31.82141        29.35476         1.54956
C         32.88706        31.53788         1.18788
C         31.47887        30.71284         1.33325
C         32.73369        32.86539         0.41771
C         31.46380        33.66703         0.87621
C         32.69895        35.85990         0.66325
C         31.39229        35.05944         0.34274
C         32.66587        37.26751        -0.05177
C         31.40399        38.10225         0.34712
C         32.77882        40.28908        -0.01395
C         31.49234        39.57751         0.37347
C         32.80248        41.75164        -0.14775
C         31.47679        42.60795         0.22085
C         32.95207        44.48711         0.18376
C         31.98760        43.91960         0.70501
C         35.69218        27.16112         1.24436
C         35.49078        28.62324         1.13611
C         34.21271        29.34922         1.37055
C         35.33428        31.47151         0.52423
C         34.02376        30.67758         0.57626
C         35.33552        32.97781         0.78147
C         34.00705        33.70345         0.52186
C         35.29353        35.85275         0.57652
C         33.98688        35.05887         0.45858
C         35.17466        37.18064        -0.27426
C         33.97125        38.05642         0.26902
C         35.15739        40.14888        -0.67055
C         33.91004        39.52230        -0.18887
C         35.15160        41.64964        -0.98796
C         33.94264        42.40393        -0.55950
C         35.48675        44.20497         0.19033
C         34.13953        43.94927        -0.52475
C         35.75605        45.64333         0.54566
C         37.81562        27.15153         0.00592
C         36.63633        26.67633         0.51662
C         37.89773        28.65647         0.36601
C         36.50670        29.29503         0.16432
C         37.83168        31.54164         0.34031
C         36.50183        30.80459         0.34818
C         37.70332        32.89884        -0.38657
C         36.50897        33.70296         0.12187
C         37.78339        35.86396         0.11217
C         36.50233        35.05471         0.11515
C         37.65559        37.27327        -0.43293
C         36.48081        37.95364        -0.38702
C         37.66525        40.15513        -0.97537
C         36.46148        39.46432        -0.25163
C         37.71644        41.66267        -0.58761
C         36.49453        42.40558        -1.30129
C         37.57121        44.72352        -1.41515
C         36.53870        43.84061        -0.87123
C         37.68603        46.12202        -0.89970
C         36.73812        46.28320         0.12743
C         40.04750        24.39483        -0.35385
C         39.06647        25.06937        -0.64660
C         40.23368        27.14539        -0.47543
C         38.86468        26.52379        -0.86708
C         40.27522        28.63974        -0.76067
C         38.99757        29.39251        -0.35463
C         40.22810        31.53473        -0.52224
C         38.98631        30.74843        -0.27034
C         40.21169        33.00512        -0.32590
C         39.01417        33.66277        -0.31824
C         40.24558        35.86058        -0.18053
C         38.97107        35.14066        -0.54712
C         40.18556        37.23840        -0.05100
C         38.97362        37.95731        -0.53348
C         40.16754        40.24803        -0.19759
C         39.00130        39.43511        -0.74648
C         40.22862        41.69056        -0.70103
C         39.05421        42.37711        -0.81481
C         40.30164        44.63761        -0.91476
C         39.06095        43.86531        -0.52131
C         40.26501        46.15337        -0.83571
C         38.92423        46.88136        -1.00293
C         40.14559        48.96226        -0.42208
C         39.12981        48.27536        -0.56229
C         42.62714        24.41388        -0.46397
C         41.34697        24.89626         0.18324
C         42.65339        27.19341         0.03361
C         41.36040        26.47167        -0.11056
C         42.70887        28.56442         0.03794
C         41.41358        29.33591         0.02315
C         42.77672        31.54540        -0.14300
C         41.52666        30.79399        -0.41084
C         42.71011        32.98255        -0.13122
C         41.49480        33.69979        -0.19173
C         42.68997        35.88559         0.11823
C         41.46762        35.12482        -0.02403
C         42.65788        37.24466         0.29019
C         41.38468        38.05110         0.38939
C         42.69491        40.28556         0.00405
C         41.48756        39.44224        -0.38005
C         42.72933        41.64441        -0.09725
C         41.60322        42.33379        -0.84798
C         42.68923        44.62100         0.02745
C         41.60333        43.87471        -0.79117
C         42.78112        46.11461        -0.41106
C         41.44130        46.89323        -0.18855
C         42.75789        48.93236        -0.00828
C         41.52473        48.44133        -0.71494
C         43.68429        25.03849        -0.35451
C         45.24658        27.09654         0.25102
C         43.93674        26.39759         0.12511
C         45.27372        28.63188         0.33549
C         43.95320        29.35665         0.25740
C         45.25384        31.55763         0.12417
C         43.95525        30.83199         0.03151
C         45.24009        32.99687        -0.36380
C         43.99571        33.72042         0.19464
C         45.27312        35.83772         0.13641
C         43.97845        35.17228        -0.28147
C         45.15256        37.24517         0.66059
C         43.93423        38.00010         0.03243
C         45.21332        40.17436         0.16481
C         43.86257        39.49883         0.54898
C         45.26274        41.71543         0.19802
C         43.94658        42.43594         0.45143
C         45.23598        44.62216         0.22279
C         44.06237        43.93008         0.09953
C         45.28950        46.17269        -0.05014
C         43.97767        46.79544         0.39007
C         43.78002        48.25405         0.14748
C         47.67363        27.22757        -0.21945
C         46.58755        26.64849        -0.12860
C         47.84696        28.67023         0.23401
C         46.51307        29.32617        -0.24841
C         47.77898        31.60145        -0.51107
C         46.55453        30.82841         0.00203
C         47.72904        33.05304        -0.05712
C         46.54182        33.72920        -0.02383
C         47.72737        35.91545         0.56059
C         46.47582        35.17817         0.23072
C         47.74376        37.27292         0.70981
C         46.47247        38.00716         0.35491
C         47.62759        40.21964         1.23140
C         46.34177        39.42533         0.97005
C         47.73267        41.68742         0.94190
C         46.56622        42.44255         0.35267
C         47.74011        44.61030         1.23062
C         46.63463        43.97079         0.31309
C         47.50172        46.05066         1.05948
C         46.45973        46.65022         0.79082
C         50.36707        28.92540        -0.20151
C         49.06764        29.43028        -0.21027
C         50.31386        31.57245        -0.23966
C         49.09105        30.86095        -0.27495
C         50.29558        33.04949         0.15196
C         49.01681        33.84107        -0.18930
C         50.34044        35.96136         0.59159
C         49.00640        35.16179         0.58582
C         50.31543        37.44715         0.77033
C         48.98722        38.16211         0.66902
C         50.08589        40.17746         1.79860
C         48.81582        39.32583         1.67850
C         49.96749        41.66119         1.86875
C         49.04157        42.37267         1.13458
C         50.40256        44.34173         1.21822
C         49.02473        43.86061         1.37018
C         51.49452        29.50680        -0.19517
C         52.68092        31.83273         0.00363
C         51.58802        30.90502        -0.12866
C         52.69252        33.07528         0.12571
C         51.50413        33.85895        -0.46180
C         52.06918        36.17073        -1.11270
C         51.39253        35.35702        -0.23066
C         52.56848        36.88804        -2.01674
C         51.45588        38.19430         0.90730
C         52.25418        40.71426         0.73573
C         51.39218        39.65148         1.25328
C         52.49355        41.88396         0.42334
C         52.55256        43.28115         0.16247
C         51.43517        44.03388         0.59011
O         30.90078        38.88435        -0.77345
O         47.30708        41.19115         2.29538
O         47.65848        31.77817        -2.01515
O         39.27502        38.55178        -1.87323
O         48.12911        44.16565         2.52296
O         39.80354        46.65606        -2.12579
O         30.68226        42.77377        -0.97656
O         38.69732        35.30120        -2.02086
O         34.96012        40.64037        -2.02995
O         46.08963        31.28557         1.29864
O         51.13169        39.73931         2.71823
O         49.81511        35.25095         1.75681
O         44.67446        29.08746         1.54999
O         41.91205        41.98418        -2.30051
O         41.10519        44.31799        -2.08184
O         46.05324        42.11862        -0.97493
O         44.62814        26.48580         1.39906
O         40.47872        28.69141        -2.18664
O         35.24871        29.35474         2.36371
O         38.10534        36.15956         1.46835
O         43.15884        42.63475        -2.63389
H         42.85515        43.49252        -3.02808
O         43.78843        42.38527         1.90433
H         43.04831        43.01012         2.11989
O         41.15110        46.94219         1.20656
H         41.80973        47.52188         1.64876
O         45.15953        32.88484        -1.79810
H         44.81479        33.74280        -2.15348
O         37.39662        40.03622        -2.37903
H         37.93249        39.26814        -2.70670
O         40.97854        31.14078        -1.73187
H         40.51471        29.64684        -2.45709
O         35.50303        43.35881         1.32773
H         36.23297        43.62023         1.92438
O         43.81870        46.54242         1.79305
H         44.66004        46.79288         2.23840
O         41.65903        39.13498        -1.76780
H         41.93132        39.95713        -2.23799
O         38.21045        31.80981         1.70633
H         38.04527        30.99557         2.23149
O         37.51722        41.81412         0.83734
H         38.19664        41.23936         1.28224
O         36.66908        42.38353        -2.71950
H         36.39437        41.48719        -3.03795
O         45.29541        39.91496        -1.24284
H         45.94729        40.52495        -1.65413
O         41.18418        38.33524         1.82164
H         40.91522        37.49403         2.25208
O         53.56358        43.79833        -0.57622
H         53.44147        44.76177        -0.68773
O         31.43365        43.58600        -1.91570
H         31.00301        44.47147        -1.82053
O         34.93342        36.69219        -1.60595
H         34.77360        37.45057        -2.20501
O         35.58511        33.11715         2.20763
H         35.60502        34.08299         2.41098
O         34.08998        38.18957         1.70044
H         34.90831        38.71284         1.87945
O         37.44994        32.59762        -1.78240
H         37.65280        33.40971        -2.30098
O         44.89519        37.00560         2.04843
H         44.44290        37.79138         2.43448
O         43.60086        39.47163         1.96506
H         43.54208        40.40693         2.27531
O         38.55368        26.82614        -2.22124
H         39.19536        27.50073        -2.56108
O         48.36028        30.67528        -2.68395
H         48.19777        30.89768        -3.63361
O         46.58896        37.98745        -1.09447
H         47.45115        38.41529        -1.32461
O         39.85194        34.80961        -2.73961
H         40.40793        35.62008        -2.85019
O         41.74399        48.45994        -2.09632
H         41.54546        49.34827        -2.45661
O         40.96397        29.35639         1.42003
H         41.75308        29.37203         2.00433
O         37.98036        44.59902        -2.71934
H         37.59604        43.77094        -3.10408
O         32.65051        36.05450         2.08434
H         33.52360        36.40709         2.38171
O         52.68126        37.63091         0.94704
H         53.37691        38.31411         1.01014
O         39.86841        40.47595         1.21686
H         40.26254        39.72764         1.74857
O         43.99661        37.88831        -1.40981
H         44.89722        38.16842        -1.70991
O         33.23490        31.88136         2.51419
H         33.59205        31.09790         2.98269
O         35.53186        36.12353         1.97393
H         36.53940        36.20138         2.06610
O         44.11444        33.77012         1.63315
H         44.38912        32.88873         1.96508
O         50.88497        42.25137         2.63950
H         51.42474        41.53309         3.05557
O         32.52086        32.58381        -0.98197
H         32.28351        33.44236        -1.41912
O         33.68547        30.24524        -0.75732
H         33.27771        31.01242        -1.23519
O         42.16394        44.50282         1.37584
H         42.52942        45.25212         1.91010
O         36.51479        39.62422         1.20180
H         37.10936        38.92903         1.56169
O         38.84918        44.07761         0.81824
H         38.25051        43.35180         1.15491
O         32.56542        37.07794        -1.45999
H         31.90293        37.71829        -1.80973
O         36.11024        28.98680        -1.17641
H         35.22453        29.40200        -1.33972
O         51.52633        33.64907        -1.85135
H         52.05377        34.36393        -2.27443
O         46.36652        29.11291        -1.66169
H         47.13901        29.51399        -2.13604
O         45.91276        39.18829         2.32018
H         45.99415        40.03457         2.81546
O         45.55839        46.42221        -1.40160
H         46.39515        45.95082        -1.62359
O         49.01987        38.85223        -0.64445
H         49.58628        38.32513        -1.25174
O         48.50789        38.75648         2.94217
H         48.17187        39.46462         3.53065
O         38.21324        28.75327         1.77039
H         39.19692        28.74748         1.87320
O         47.84536        28.69263         1.65015
H         48.68233        28.30993         1.98432
O         43.94551        35.21028        -1.74008
H         43.90415        36.18122        -1.96752
O         43.08569        46.07953        -1.79443
H         42.87265        46.95107        -2.20382
O         34.23183        44.43570        -1.84886
H         33.40110        44.19208        -2.31563
O         50.39946        32.97662         1.57850
H         51.27687        32.60406         1.81179
O         31.20591        34.94608        -1.07561
H         30.30328        34.60151        -1.24063
O         41.42853        24.73116         1.56576
H         41.43127        23.77782         1.78619
O         49.06035        34.24170        -1.58192
H         48.76958        33.47209        -2.12640
O         47.23256        44.28906        -0.98768
H         46.79413        43.70626        -1.65221
