         658
 CSIRO Nanostructure Databank - Neutral Graphene Oxide Data Set
C          5.83420        31.67537         0.29703
C          5.80090        33.02169         0.15612
C          8.32676        27.42855         0.12779
C          8.34350        28.80207         0.06227
C          7.10394        29.55765         0.15537
C          8.35133        31.70366         0.36942
C          7.07407        30.92008         0.20172
C          8.31158        33.07599        -0.26698
C          6.99999        33.78489        -0.27387
C          8.31391        35.96998        -0.35209
C          6.95975        35.29701        -0.20280
C          8.34334        37.34039        -0.34408
C         10.80390        23.08004         0.41176
C         10.77840        24.51820         0.35543
C          9.58414        25.20329         0.26415
C         10.86185        27.38251        -0.22419
C          9.52956        26.62410        -0.10652
C         10.83237        28.84738        -0.09183
C          9.60349        29.53463        -0.04246
C         10.80743        31.67998        -0.05533
C          9.60775        30.95275         0.01819
C         10.80220        33.13238        -0.15312
C          9.58404        33.84111        -0.25388
C         10.78821        35.96593        -0.57851
C          9.55988        35.24378        -0.40489
C         10.77920        37.38377        -0.81011
C          9.54017        38.10932        -0.55814
C         10.42733        40.41571        -0.75057
C          9.44303        39.48951        -0.30215
C         10.92628        41.56684        -0.16775
C         13.32315        18.87119         0.12715
C         13.27953        20.26689         0.31209
C         12.05231        20.95891         0.36608
C         13.21655        23.09615         1.01289
C         11.98497        22.35916         0.54747
C         13.23539        24.53205         0.51075
C         12.06465        25.23359         0.31531
C         13.28187        27.40516         0.28758
C         12.10596        26.66983         0.10854
C         13.29043        28.85504         0.20050
C         12.05853        29.55965         0.02382
C         13.27691        31.70659         0.13878
C         12.05423        30.98488        -0.00407
C         13.27490        33.15058         0.01170
C         12.03111        33.84198        -0.21673
C         13.26888        35.92592        -0.67756
C         12.02232        35.24412        -0.49343
C         13.25738        37.28986        -1.00992
C         12.03061        38.01404        -1.10697
C         13.30870        40.15466        -1.42081
C         12.14183        39.38303        -1.50452
C         13.28173        41.57364        -1.20445
C         12.15635        42.21709        -0.55646
C         13.50818        44.26266        -0.31088
C         12.32895        43.53088        -0.08363
C         13.64337        45.57547         0.21413
C         15.77490        14.68131        -0.73808
C         15.72476        16.07300        -0.64160
C         14.54979        16.77134        -0.26089
C         15.78171        18.91680        -0.17162
C         14.53051        18.16738        -0.09307
C         15.79534        20.31317         0.22077
C         14.53379        21.01213         0.45871
C         15.77303        23.07331         1.16237
C         14.50833        22.34663         0.77996
C         15.80702        24.50255         0.64680
C         14.51618        25.23906         0.36735
C         15.72265        27.38005         0.70965
C         14.53287        26.70793         0.47361
C         15.68922        28.85846         0.87916
C         14.47900        29.58935         0.41588
C         15.65545        31.80715         0.92568
C         14.47489        31.00291         0.40242
C         15.72777        33.20020         0.34299
C         14.48801        33.86268         0.03318
C         15.73419        35.91360        -0.48101
C         14.51899        35.24409        -0.40066
C         15.82394        37.22104        -1.11316
C         14.51313        37.96862        -1.37593
C         15.75283        40.11749        -1.65081
C         14.57481        39.44872        -1.44552
C         15.64752        41.58137        -2.13219
C         14.50443        42.30206        -1.40624
C         15.75120        44.49519        -1.36930
C         14.58620        43.64287        -1.03233
C         15.91326        45.81364        -0.72978
C         14.82159        46.33481         0.07318
C         16.17465        48.32816         0.60610
C         14.97815        47.56674         0.73000
C         16.40075        49.44084         1.39227
C         18.19445        10.40820        -0.58231
C         18.21741        11.79254        -0.97953
C         17.02917        12.54175        -0.86889
C         18.21026        14.67880        -1.13799
C         16.99296        13.96239        -0.97352
C         18.20108        16.13535        -1.36484
C         16.89958        16.87896        -1.05544
C         18.16878        19.08229        -0.79776
C         16.92269        18.30731        -0.67114
C         18.25059        20.36818        -0.07779
C         17.01261        20.98946         0.32971
C         18.22520        23.06054         0.86790
C         17.05079        22.37669         0.75862
C         18.25823        24.50309         1.33194
C         17.00592        25.28798         0.96905
C         18.24214        27.47142         0.80477
C         16.96535        26.66501         0.90779
C         18.24612        28.86585         1.48432
C         16.93985        29.62699         1.20489
C         18.15759        31.74805         0.69437
C         16.97845        31.07704         0.87511
C         18.19006        33.19606         0.47763
C         16.93788        33.87505         0.28502
C         18.26336        36.00831        -0.20077
C         16.95053        35.38227         0.22250
C         18.27903        37.37072        -0.70624
C         17.07481        37.99518        -1.05667
C         18.32993        40.10848        -1.71236
C         17.02985        39.35331        -1.64976
C         18.29720        41.60770        -1.89147
C         16.99812        42.33002        -2.08100
C         18.28929        44.53395        -1.68261
C         17.01018        43.82054        -1.87381
C         18.27191        45.93365        -1.47408
C         17.07754        46.54242        -0.91627
C         18.29126        48.66684        -0.62973
C         17.21927        47.86617        -0.32540
C         18.14025        50.12439        -0.21858
C         17.69258        50.19353         1.24385
C         18.56340        52.53991         1.31110
C         17.60911        51.61255         1.71145
C         18.60355        53.84298         1.91594
C         20.45804         6.47581         1.39763
C         20.46209         7.76180         0.88135
C         19.25319         8.40893         0.49626
C         20.62972         9.89286        -0.80001
C         19.29854         9.57356        -0.30017
C         20.68196        11.93087        -1.47431
C         19.44108        12.54463        -1.20714
C         20.69752        14.64325        -1.03128
C         19.44027        13.96883        -1.11495
C         20.74284        16.09687        -0.97989
C         19.55034        16.86102        -1.53319
C         20.69732        18.98143        -0.59070
C         19.49553        18.34475        -1.11819
C         20.70736        20.32373        -0.18158
C         19.47192        21.00509         0.10670
C         20.73488        23.14260         0.53416
C         19.52981        22.30692         0.87581
C         20.69808        24.53537         0.66968
C         19.49391        25.23212         0.88190
C         20.74910        27.46100         1.25433
C         19.48433        26.68288         1.17818
C         20.72470        28.94096         1.08496
C         19.49094        29.59054         1.00731
C         20.73618        31.74415         0.50579
C         19.42854        30.98762         0.59333
C         20.65155        33.21998         0.75690
C         19.38477        33.92172         0.45728
C         20.72865        36.04002         0.05536
C         19.44054        35.32919         0.09824
C         20.75787        37.42627        -0.42307
C         19.54331        38.05936        -0.84119
C         20.75810        40.16175        -1.24041
C         19.57029        39.45051        -1.22099
C         20.75871        41.63461        -1.19167
C         19.48423        42.38597        -1.40103
C         20.72132        44.58626        -1.47754
C         19.52372        43.85927        -1.62292
C         20.72097        46.01309        -1.55749
C         19.47864        46.68104        -1.54759
C         20.63424        48.97971        -1.80173
C         19.28162        48.18877        -1.69401
C         20.55152        50.40467        -1.18943
C         19.36864        50.97319        -0.46750
C         20.68175        53.06521         0.13064
C         19.55843        52.20487         0.33209
C         20.54799        54.58903         0.41675
C         19.55667        54.81256         1.64630
C         20.28759        57.13042         2.31148
C         19.54721        55.94491         2.50179
C         20.68274        58.05855         3.26873
C         22.84380         3.85732         2.68017
C         21.65480         4.53139         2.38243
C         22.92485         6.30737         1.29503
C         21.68189         5.76985         1.69948
C         22.94738         7.53529         0.41628
C         21.80226         8.49612         0.82658
C         23.11421        10.19098        -0.74218
C         21.80321         9.63124        -0.17448
C         23.15170        11.73283        -0.89928
C         21.93086        12.50511        -1.17272
C         23.16162        14.63843        -0.95370
C         21.88892        13.90534        -0.91532
C         23.18880        16.01316        -0.34388
C         21.90744        16.74907        -0.68699
C         23.22763        18.89585        -0.22510
C         21.89728        18.18179        -0.36806
C         23.17434        20.35299        -0.30102
C         21.98007        21.00615        -0.07929
C         23.13323        23.28659        -0.16559
C         22.04562        22.40474         0.49530
C         23.27372        24.59538         0.63319
C         21.95200        25.32871         0.47020
C         23.27337        27.45964         0.97991
C         21.98807        26.78868         0.78066
C         23.23367        28.88183         1.46791
C         21.97006        29.62385         1.04927
C         23.18190        31.77498         0.90381
C         22.00663        31.04062         0.84641
C         23.18004        33.23086         0.43623
C         21.92028        33.99151         0.81526
C         23.16109        36.23224         0.71220
C         21.89888        35.43211         0.45922
C         23.21454        37.53349        -0.06153
C         21.99181        38.10361        -0.54449
C         23.29822        40.23342        -1.17441
C         22.03529        39.38189        -1.37005
C         23.22008        41.72129        -1.08655
C         22.02283        42.39307        -1.21371
C         23.30963        44.64258        -1.35676
C         21.98160        43.87248        -1.16470
C         23.25170        46.11473        -1.64090
C         21.98439        46.77327        -1.55014
C         23.10394        48.93465        -1.34148
C         21.90861        48.19436        -1.45608
C         23.08709        50.41084        -1.16310
C         21.82493        51.18959        -1.04944
C         23.15526        53.34566        -0.50579
C         21.83380        52.56126        -0.45580
C         23.15503        54.56839         0.40091
C         21.93158        55.21410         0.67516
C         23.14500        57.11541         1.70695
C         21.99538        56.53424         1.12662
C         23.08950        58.32989         2.49501
C         21.90080        58.83030         3.14269
C         23.19189        60.71918         4.03786
C         21.99293        60.01345         3.91034
C         24.07322         4.40938         2.33989
C         25.37509         6.30353         1.41536
C         24.13383         5.65502         1.65309
C         25.43042         7.64041         0.93820
C         24.25744         8.28860         0.44895
C         25.50500        10.36590         0.19730
C         24.31533         9.61978         0.00539
C         25.44524        11.86970         0.14670
C         24.34740        12.40695        -0.75627
C         25.76495        14.58380        -1.05328
C         24.43089        13.85314        -1.07680
C         25.70678        16.07380        -0.78840
C         24.48101        16.77385        -0.62086
C         25.71862        18.89929        -0.46343
C         24.49920        18.17505        -0.47972
C         25.72646        20.34923        -0.37540
C         24.44718        21.07162        -0.52436
C         25.72177        23.25658        -0.15519
C         24.45330        22.56846        -0.42463
C         25.73320        24.77454        -0.22584
C         24.46338        25.43417         0.25369
C         25.74058        27.51080         0.68615
C         24.46861        26.78977         0.62968
C         25.68786        28.93755         0.94333
C         24.51042        29.62115         1.14534
C         25.68022        31.79046         0.79186
C         24.46646        31.11912         1.40986
C         25.67242        33.25798         0.50851
C         24.42588        33.99080         0.94399
C         25.65513        36.11156         0.49474
C         24.46152        35.45650         0.57963
C         25.65351        37.62458         0.56186
C         24.43440        38.18080        -0.15041
C         25.72266        40.35294        -0.29331
C         24.53756        39.55526        -0.66491
C         25.67578        41.79136        -0.52441
C         24.45661        42.45220        -1.02154
C         25.79213        44.25801        -1.91443
C         24.52410        43.79300        -1.43738
C         25.77500        46.43008        -2.07017
C         24.44440        46.90771        -1.71106
C         25.60017        49.08131        -1.33276
C         24.35309        48.29550        -1.48061
C         25.43833        50.54388        -1.41890
C         24.34770        51.13240        -0.88103
C         25.68825        53.08744         0.09322
C         24.30800        52.41189        -0.07651
C         25.68072        54.49562         0.59822
C         24.36909        55.17571         0.80642
C         25.60111        57.01189         1.96769
C         24.36732        56.41198         1.50454
C         25.56487        58.29741         2.51073
C         24.33821        58.95790         2.80738
C         24.36439        60.18418         3.52058
C         26.64114         8.37409         0.99969
C         27.91613        10.50295         1.07058
C         26.66130         9.73673         0.71216
C         27.99461        11.91099         0.53230
C         26.78939        12.57609         0.05336
C         28.06396        14.72646         0.09529
C         26.85861        13.89508        -0.29098
C         28.23095        15.98804        -0.76435
C         26.92743        16.76785        -0.72281
C         28.19186        18.87173        -0.38631
C         26.94771        18.17557        -0.52875
C         28.16709        20.32237        -0.12292
C         26.90017        21.07690        -0.25097
C         28.17461        23.26624        -0.10973
C         26.91271        22.53642        -0.14543
C         28.22350        24.65308         0.06805
C         26.94452        25.33221         0.52221
C         28.20156        27.55214         0.45294
C         26.95066        26.84557         0.51799
C         28.23210        28.92029         0.61996
C         26.99719        29.62197         1.01363
C         28.19765        31.77010         0.39414
C         26.99295        31.11452         0.96382
C         28.16553        33.24273         0.13925
C         26.93317        34.00045         0.38998
C         28.15110        36.10987         0.18969
C         26.93647        35.39719         0.39079
C         28.15566        37.53124         0.12212
C         26.94954        38.27886         0.13786
C         28.19442        40.39114        -0.34852
C         26.94675        39.68814        -0.10117
C         28.25667        41.74205        -0.65152
C         27.01687        42.52742        -0.68005
C         28.28841        44.26523        -1.89973
C         27.02071        43.71197        -1.54575
C         28.28219        46.43967        -2.00768
C         26.99066        47.04374        -1.76248
C         28.33357        49.17180        -1.35559
C         26.96241        48.43822        -1.23246
C         28.37604        50.46399        -0.54740
C         27.36543        51.35191        -0.68299
C         28.12964        52.87389         1.02097
C         26.89366        52.20059         0.45610
C         28.03603        54.20088         1.48749
C         26.86891        54.98981         1.35441
C         26.81581        56.26746         1.91221
C         29.21765        12.54084         0.49700
C         30.55450        14.61108         0.16050
C         29.35273        13.94159         0.18467
C         30.64381        16.05241        -0.02539
C         29.43785        16.76948        -0.30436
C         30.72061        18.87498        -0.40568
C         29.41805        18.16840        -0.33502
C         30.74873        20.37365        -0.44202
C         29.45980        21.07859        -0.14306
C         30.75662        23.26163        -0.22452
C         29.43078        22.54696        -0.37791
C         30.70595        24.69987         0.08817
C         29.45585        25.36190         0.09707
C         30.72767        27.52052         0.49344
C         29.46170        26.86225        -0.01495
C         30.73952        28.94886         0.50199
C         29.46714        29.67834         0.52073
C         30.76551        31.83483         0.62465
C         29.47543        31.05055         0.55666
C         30.63144        33.27062         0.14822
C         29.46047        33.94819         0.08562
C         30.68870        36.12395         0.10479
C         29.41169        35.40766        -0.28846
C         30.64466        37.52448         0.17095
C         29.41546        38.20572         0.01158
C         30.73803        40.37212        -0.41178
C         29.42853        39.61048        -0.38958
C         30.71274        41.83367        -0.53760
C         29.50268        42.45753        -0.84189
C         30.69811        44.62877        -1.23586
C         29.49305        43.82571        -1.31610
C         30.66874        46.07073        -1.26329
C         29.49270        46.87862        -1.44791
C         30.77088        49.03375        -0.73363
C         29.43580        48.25217        -0.78418
C         30.63933        50.14326         0.29670
C         29.45684        50.84317         0.37284
C         29.30173        52.10708         1.06808
C         31.85822        16.74396         0.14319
C         33.13770        18.88540         0.13765
C         31.95936        18.15734        -0.03204
C         33.19539        20.33017         0.11322
C         31.99748        21.07885        -0.09031
C         33.18052        23.15945         0.36612
C         31.99342        22.47973         0.04942
C         33.13453        24.60391         0.63871
C         31.91095        25.37718         0.38007
C         33.20231        27.49651         0.59287
C         31.94605        26.80060         0.53543
C         33.21724        28.99742         0.75671
C         31.92496        29.65095         0.39163
C         33.20094        31.77672        -0.13774
C         31.86956        31.06515        -0.12580
C         33.15699        33.22735        -0.43976
C         31.87675        33.98096        -0.24242
C         33.17315        36.08876         0.03626
C         31.93036        35.43688         0.01089
C         33.22143        37.51733         0.38150
C         31.89565        38.26345         0.44805
C         33.19519        40.52610         0.28546
C         31.90502        39.75110         0.26820
C         33.18169        41.88412        -0.30896
C         31.95351        42.55122        -0.57778
C         33.17334        44.65512        -0.83474
C         31.92105        43.94582        -0.89581
C         33.13404        46.05278        -0.79786
C         31.89949        46.76654        -0.85970
C         31.92566        48.10920        -0.51085
C         34.39899        21.04187         0.33369
C         35.65582        23.19764         0.50954
C         34.42646        22.45763         0.43641
C         35.71105        24.60768         0.53141
C         34.45398        25.35972         0.74517
C         35.65399        27.51989         0.33410
C         34.42851        26.81939         0.53232
C         35.62710        28.93154         0.13238
C         34.43718        29.66681         0.17941
C         35.62574        31.73002        -0.70274
C         34.38796        31.08017        -0.11387
C         35.64853        33.26641        -0.67576
C         34.40624        34.00871        -0.43494
C         35.66447        36.13509        -0.16969
C         34.40964        35.38767        -0.22384
C         35.64777        37.58676        -0.02304
C         34.46984        38.28019         0.17643
C         35.70691        40.46186        -0.09179
C         34.51391        39.76991         0.53658
C         35.65681        41.80066        -0.42160
C         34.42394        42.56006        -0.48725
C         34.40220        43.93867        -0.72798
C         36.89656        25.35518         0.41124
C         38.13049        27.47281         0.17549
C         36.92114        26.79228         0.31570
C         38.19765        28.92133        -0.22858
C         36.91598        29.66014         0.08623
C         38.22152        31.82179        -0.50861
C         36.91236        31.12152        -0.15515
C         38.13503        33.24908         0.06865
C         36.93973        34.01492        -0.47196
C         38.14681        36.16663        -0.12413
C         36.88192        35.46547        -0.19304
C         38.13967        37.55645        -0.12927
C         36.91989        38.30653        -0.09760
C         36.91507        39.69903        -0.18428
C         39.40053        29.72948         0.22539
C         40.61576        31.89471         0.26443
C         39.42560        31.08364         0.06192
C         40.62850        33.25577         0.12020
C         39.42173        34.03067        -0.05939
C         39.38372        35.40296        -0.11433
O         25.46744        32.25124        -0.56867
O         22.51248        18.40052         0.97669
O         25.99407        54.15782        -0.81828
O         30.80935        19.62587        -1.68907
O         32.55831        37.83873         1.67424
O         20.66294        10.63404        -1.99713
O         28.02765        32.26062        -0.97767
O         21.26580        33.60194         2.05868
O         26.24667        48.70606         0.00450
O         10.17117        26.88319        -1.41501
O         19.86945        42.06762        -0.02841
O         24.31988        39.77824        -2.13411
O         22.52649        51.12850        -2.36234
O         15.21984        37.29130        -2.45844
O         32.28281        33.58500        -1.61877
O         28.32707        45.30552        -2.84587
O         25.77694        45.28085        -2.87717
O         26.27064        14.40629        -2.50687
O         16.10247        44.49604        -2.79546
O         26.28423        42.59730         0.56765
O         22.69087        44.43553        -0.02540
O         17.29430        16.56226        -2.43899
O         20.84066        57.31645         1.03592
O         23.72437        14.35238        -2.27514
O         36.45659        33.74464        -1.82272
O         30.26222        39.73550        -1.63246
O          7.57278        33.22963        -1.51929
O         11.00651        40.03103        -1.98245
O         24.42593        21.90680        -1.75683
O         19.98337        55.14336        -0.70063
O         19.56273        51.20504        -1.91089
O         33.73474        24.94883         1.94779
O         15.97588        29.31097         2.29230
O         30.17689        22.96827        -1.55547
O         17.86364        42.00154        -3.22526
O         17.81225        39.43669        -2.90382
O         15.35210        24.67239        -0.72763
O         26.56270        51.27350        -1.81551
O         21.86885        26.27239        -0.62563
O         27.18770        30.46174         2.23572
O         36.94440        30.62776         1.21959
O         32.29497        40.47750         1.46526
O         28.90263        20.69454         1.14600
O         20.10436        31.28137        -0.70707
O         18.78611        19.12676        -2.12642
O         18.36010        28.72292         2.90836
H         17.44633        28.74089         3.27720
O          8.45402        31.99151         1.80949
H          8.51093        31.13409         2.28182
O         17.07366        50.68750        -1.00829
H         17.41576        50.78463        -1.92457
O         34.75550        39.80204         1.96651
H         33.90228        39.54979         2.39307
O         16.80584        35.81432         1.64056
H         16.17424        35.19679         2.07073
O         29.34594        35.46995        -1.75185
H         30.09045        34.93853        -2.10872
O         22.10789         8.97003         2.16190
H         21.30200         9.38885         2.52883
O         35.58614        31.33923        -2.09989
H         36.14849        31.99015        -2.58543
O         19.71967        21.92364         2.31265
H         19.39150        22.69360         2.83985
O         26.76531        24.93531         1.91146
H         27.52826        25.26404         2.43084
O         26.42936        51.24860         1.48171
H         26.61272        50.32360         1.17972
O         23.17716        28.84879         2.95668
H         23.83660        28.18971         3.26484
O         28.55032        49.40961        -2.76233
H         27.99886        50.18344        -3.01877
O         28.59794        15.63121        -2.11348
H         27.83539        15.16793        -2.54127
O         24.51168        31.30811         2.84152
H         23.89466        30.64782         3.24042
O         38.26048        28.94127        -1.71312
H         38.93290        28.28317        -1.99102
O         23.08642        36.58910         2.15305
H         22.20974        37.00189         2.31291
O         24.99640        12.25975         1.50312
H         24.20939        11.71790         1.72818
O         18.55167        48.37639        -2.92953
H         19.19008        48.73925        -3.59108
O         25.81114        15.52323        -3.29998
H         24.84534        15.31004        -3.41511
O         23.12972        33.25577        -1.00798
H         23.91233        32.75945        -1.35011
O         29.08143         9.75202         0.70823
H         29.09407         9.65588        -0.26605
O         18.73944        49.51327         2.02357
H         18.45360        49.49987         2.96111
O          6.05630        35.79580        -1.20029
H          6.33116        35.41401        -2.06049
O         23.89939        51.96762         1.24689
H         24.68920        51.53083         1.66332
O         13.05844        23.22807         2.47024
H         13.96542        23.25870         2.86512
O         38.37398        31.87013        -1.93699
H         38.39359        30.93393        -2.24900
O         31.46936        30.95477        -1.51604
H         31.62159        31.83760        -1.93686
O         22.40255        22.09242         1.89332
H         21.54804        21.82247         2.32790
O         15.35502        32.01049         2.35322
H         15.38904        31.11149         2.76275
O         23.23612         9.65522        -2.09939
H         22.44774         9.98013        -2.59700
O         23.38491        53.78521        -1.85034
H         22.62150        54.33343        -2.12936
O         24.41568        33.96409         2.39038
H         23.71577        34.57978         2.70413
O         29.04122        48.00225         0.58809
H         29.73133        47.44791         1.00887
O         15.77764        23.15786         2.62790
H         16.63700        23.56470         2.90962
O         27.77199        15.21484         1.44216
H         27.59358        14.43717         2.01247
O         18.35873        27.77421        -0.61398
H         18.43777        26.93275        -1.11214
O         19.82073        16.86421        -2.95673
H         19.01667        17.23759        -3.38689
O         20.13564        26.95651         2.49146
O         29.49977        27.12460        -1.46761
H         30.17381        26.53476        -1.86782
O         37.89621        33.14760         1.50054
H         37.87524        32.20042         1.76862
O         23.50295        24.41142         2.05269
H         23.21539        23.50153         2.32358
O         22.03515        38.93666        -2.76437
H         22.97962        38.81183        -3.02169
O         33.32771        29.21260         2.22821
H         34.15816        28.77779         2.52066
O         18.31867        24.42584         2.82267
H         18.71311        25.27217         3.14007
O         23.17978        15.76980         1.09507
H         23.03309        16.65259         1.51880
O         31.08899        49.67163        -2.00596
H         30.28703        49.65349        -2.58487
O         15.26840        41.50710        -3.52022
H         16.08862        41.31934        -4.03098
O         25.50973        37.97829         1.97818
H         24.70088        37.51520         2.31373
O         22.71112         7.09151        -0.94505
H         22.94401         7.84138        -1.54921
O         25.88786        25.12804        -1.62722
H         25.10004        24.80504        -2.11474
O         20.85091        49.21334        -3.22318
H         21.45294        49.99987        -3.29966
O         31.18527        31.90869         2.01337
H         30.41275        32.14097         2.56944
O         22.61754        23.68650        -1.45022
H         22.89947        23.00089        -2.10108
H          4.90716        31.11972         0.50651
H          4.85508        33.57167         0.26997
H          7.38331        26.90539         0.34704
H          6.15960        28.99173         0.13238
H          6.52850        35.58802         0.79317
H          7.39841        37.89021        -0.22214
H          9.86444        22.54147         0.21125
H          8.63445        24.66083         0.38959
H          8.56764        39.85176         0.25898
H         10.38115        42.00367         0.68266
H         12.37644        18.31025         0.10697
H         11.12147        20.40096         0.17923
H         11.50795        44.01014         0.46995
H         12.80821        45.99435         0.79526
H         14.86508        14.10279        -0.51690
H         13.62121        16.20135        -0.10631
H         14.17214        47.93820         1.38035
H         15.66388        49.74913         2.14980
H         17.21231        10.03877        -0.24274
H         16.08953        12.01468        -0.64336
H         16.86445        51.89329         2.47198
H         17.78072        54.09261         2.60548
H         19.50032         5.95445         1.54996
H         18.28733         7.96808         0.78678
H         19.04763        55.82231         3.47833
H         20.12155        58.14459         4.21228
H         22.80472         2.89418         3.20804
H         20.68839         4.10134         2.68193
H         23.21570        61.66029         4.60423
H         21.08787        60.38950         4.40835
H         25.00804         3.89986         2.61333
H         26.30756         5.81234         1.73163
H         26.50628        58.77859         2.81631
H         25.32969        60.67832         3.70095
H         27.55364         7.88967         1.37654
H         27.93802        10.58013         2.19554
H         28.90800        54.64833         1.98992
H         27.71506        56.68583         2.38955
H         30.11796        11.96258         0.75751
H         31.48843        14.05428         0.33769
H         31.52558        50.47287         0.85972
H         30.19447        52.53799         1.54726
H         32.76463        16.17750         0.40729
H         34.06591        18.34114         0.37162
H         34.06271        46.62051        -0.63997
H         32.89476        48.56197        -0.24810
H         35.34175        20.48229         0.42849
H         36.59999        22.63591         0.44207
H         36.58311        42.30752        -0.73473
H         35.34729        44.49920        -0.77350
H         37.85470        24.81825         0.33326
H         39.06574        26.89044         0.15556
H         39.09321        38.10576        -0.15007
H         37.85918        40.22806        -0.38772
H         40.29842        29.20127         0.58544
H         41.55704        31.36913         0.48852
H         41.58382        33.79610         0.20882
H         40.32881        35.96957        -0.11817
