         261
 CSIRO Nanostructure Databank - Neutral Graphene Oxide Data Set
C        -10.85221         0.73949         0.86462
C         -9.84408         1.48220         0.14433
C         -8.84032         0.67938        -0.63239
C         -7.64440         1.42392        -1.21998
C         -6.27243         0.72342        -1.21811
C         -5.01254         1.46167        -0.88158
C         -3.69701         0.71783        -0.83335
C         -2.46174         1.46878        -0.46658
C         -1.20541         0.69255        -0.16826
C          0.02513         1.43949         0.14682
C          1.21921         0.75969         0.74569
C          2.47377         1.38473         0.19461
C          3.77441         0.63688         0.25728
C          5.06057         1.39720         0.20418
C          6.34368         0.71487         0.59772
C          7.60460         1.44062         0.17289
C          8.80020         0.66991        -0.26016
C          9.72763         1.34023        -1.26365
C         10.98850         0.51453        -1.44389
C         -9.86990         2.85118         0.04688
C         -8.81870         3.65425        -0.54754
C         -7.56055         2.97752        -1.09822
C         -6.41609         3.51625        -0.22811
C         -5.10812         2.79054        -0.16671
C         -3.84989         3.53733         0.26146
C         -2.52928         2.94389        -0.12390
C         -1.28047         3.69464         0.20269
C         -0.02059         2.91218         0.41141
C          1.26853         3.64902         0.35365
C          2.47354         2.85796        -0.04371
C          3.74823         3.62855        -0.00997
C          5.03441         2.90585         0.19635
C          6.27013         3.61275        -0.27740
C          7.53440         2.84942        -0.36405
C          8.83881         3.55900        -0.52256
C          9.90155         2.82102        -0.92255
C         -8.81766         5.02020        -0.44977
C         -7.55603         5.82801        -0.72298
C         -6.43241         5.01491        -0.02815
C         -5.16323         5.74877         0.32199
C         -3.87846         5.01151         0.61275
C         -2.59995         5.82396         0.86866
C         -1.26540         5.11657         0.71511
C          0.02483         5.86724         0.47275
C          1.18873         5.08355        -0.08647
C          2.39634         5.73426        -0.68430
C          3.72757         4.99949        -0.64128
C          5.01822         5.74676        -0.71233
C          6.26044         5.12031        -0.01498
C          7.56373         5.82993        -0.37935
C          8.88743         5.06290        -0.24294
C         -7.53183         7.26522        -0.21009
C         -6.33798         7.92699        -0.17066
C         -5.11396         7.09236        -0.35125
C         -3.71859         8.31935         1.29338
C         -2.57117         7.29611         1.20955
C         -0.90835         8.27416         1.01072
C         -0.02264         7.33271         0.16258
C          1.13153         7.98590        -0.54140
C          2.42786         7.25088        -0.93981
C          3.65624         7.84625        -0.25755
C          4.97707         7.25201        -0.69994
C          6.26355         7.97455        -0.49313
C          7.53619         7.18107        -0.47611
C         -6.18929         9.37605        -0.05462
C         -5.02553        10.07237         0.09450
C         -3.71081         9.51444         0.41610
C         -2.53315        10.11020         0.04064
C         -1.20323         9.54907         0.21804
C         -0.12481        10.16222        -0.35207
C          1.22603         9.51262        -0.57554
C          2.45234        10.06395         0.12150
C          3.66266         9.28405         0.24401
C          4.99574         9.92040         0.42828
C          6.16818         9.32188         0.13214
C        -10.81226        -0.61825         0.99363
C         -9.73248        -1.43414         0.47182
C         -8.47547        -0.69431         0.02799
C         -7.53624        -1.51745        -0.89483
C         -6.27368        -0.80459        -1.28773
C         -4.94474        -1.54907        -1.24928
C         -3.66743        -0.79530        -0.93387
C         -2.41643        -1.50965        -0.40864
C         -1.33461        -0.72617         0.29913
C         -0.18084        -1.41027         1.01174
C          1.15338        -0.67095         1.17721
C          2.48556        -1.41711         1.27568
C          3.77017        -0.74243         0.85535
C          5.00682        -1.56914         0.48159
C          6.32450        -0.78301         0.73070
C          7.59167        -1.53430         0.37934
C          8.77196        -0.82418        -0.21194
C         10.13988        -1.52810        -0.19708
C         11.10391        -0.78090        -1.10500
C         -9.78770        -2.79334         0.53056
C         -8.75061        -3.68168        -0.05904
C         -7.58919        -3.02584        -0.75143
C         -6.29840        -3.78877        -0.91794
C         -4.96804        -3.05123        -0.97998
C         -3.73751        -3.73444        -0.42293
C         -2.45044        -2.98160        -0.17635
C         -1.36695        -3.69023         0.60123
C         -0.17984        -2.93281         1.10964
C          1.12458        -3.66019         1.40142
C          2.43185        -2.91403         1.50404
C          3.75359        -3.67613         1.48198
C          5.01190        -2.86615         1.26656
C          6.31710        -3.50161         1.62751
C          8.12991        -2.81986         1.05975
C          8.86179        -3.70200         0.03509
C          9.91115        -2.99836        -0.53801
C         -8.66837        -5.12441         0.46446
C         -7.57007        -5.94959        -0.16938
C         -6.30892        -5.23450        -0.54850
C         -5.13001        -5.89427         0.14732
C         -3.80257        -5.12753         0.15231
C         -2.50703        -5.87943         0.15823
C         -1.17628        -5.12913         0.12677
C         -0.14798        -5.90846         0.94780
C          1.15002        -5.18738         1.30626
C          2.45215        -5.95677         1.31909
C          3.76733        -5.18388         1.30538
C          5.04029        -5.91122         0.88454
C          6.08506        -5.25007         0.01844
C          7.46109        -5.86156        -0.01185
C          8.64523        -5.08749        -0.22138
C         -7.54586        -7.30367        -0.24484
C         -6.29364        -8.04343        -0.60342
C         -4.99509        -7.32287        -0.36345
C         -3.73746        -8.08577        -0.01507
C         -2.45535        -7.32169        -0.35278
C         -1.43619        -8.15320         0.42408
C         -0.15235        -7.40933         0.80916
C          1.17732        -7.92551         0.20042
C          2.44655        -7.41796         0.91294
C          3.73459        -8.12521         0.61586
C          5.06909        -7.42341         0.77122
C          6.35449        -8.15728         0.32262
C          7.48413        -7.24321        -0.10524
C         -6.20673        -9.52318        -0.61266
C         -5.01054       -10.17126        -0.66715
C         -3.72553        -9.51396        -0.50576
C         -2.51591       -10.16897        -0.56504
C         -1.27324        -9.51507        -0.20557
C         -0.04363       -10.11903        -0.30292
C          1.20742        -9.42187        -0.08288
C          2.40725        -9.98306        -0.41279
C          3.63903        -9.12168        -0.55177
C          4.91757        -9.87554        -0.81466
C          6.12332        -9.35290        -0.56906
O          3.01407        -8.38568         1.84700
O          1.37656         5.13035        -1.54015
O         -1.24468        -3.42211         2.00291
O         -1.80621         3.69856        -1.15789
O         -3.14052        -5.46754         1.40753
O          6.69257         3.07767        -1.55874
O         -2.17129        -8.42714         1.69374
O          5.80273        -2.78306         2.54101
O          1.64503        -3.20610         2.68502
O         -0.42630        -6.77760         2.08068
O          2.25885         1.94564        -1.14371
O         -6.28979        -4.84337        -1.93573
O          7.80812        -1.51930        -1.05939
O         -1.29212        -0.82428         1.74954
O         -2.82374         1.28118        -1.86359
O          6.35942         0.06503         1.90078
O         -5.49302         1.39594        -2.25609
O         -6.09191         2.71917         0.92349
O         -1.86512        -2.42870        -1.40186
O         -8.69359        -3.58962        -1.52052
O          4.50309         5.09039        -1.88459
O          5.74228        -4.46246        -0.85170
O         -9.37172         0.46487        -1.98436
O          1.70795        -5.73467         2.53234
O          8.74955         1.27442         1.05969
O         -0.55597         8.43200         2.23275
O         -6.21138         5.52957         1.30514
O         -7.28458         3.43787        -2.43508
O         -0.05768         7.54983        -1.27463
O          3.39121        -0.78706         2.24432
O         -5.47934        -7.47800        -1.70755
O          4.37054         3.54266         1.31537
O         -3.95768         3.98180         1.63763
O         -4.04689        -3.77164        -1.84319
O          1.14352        -7.32525        -1.08771
O          5.59262         7.92105        -1.82576
O         -4.15429         7.39241        -1.05579
O          3.48525         8.04363         1.13972
O         -4.01157        -1.19628        -2.29055
O         -7.27401        -1.19974        -2.28115
O         -2.61244         6.39702         2.23938
O         -0.36065         5.44911         1.79502
O          1.11616         0.42888         2.14133
O          3.95338        -4.55317         2.60762
O          5.42155        -6.75561         2.01150
O          4.51040         0.75930        -0.99896
O          8.65998        -2.71648         2.18248
O         -4.57159         8.13115         2.13594
O         -0.21047         0.96009        -1.20600
O         -3.60951        -8.16874         1.45068
O          0.70151         3.26745         1.62610
O          6.13399         5.32287         1.35315
O         -7.70181        -0.38439         1.13744
O         -0.62916        -5.07265        -1.20493
H         -1.16855        -4.46346        -1.75812
O          3.49336        -8.30079        -1.74757
H          2.56464        -7.91159        -1.74999
O          6.93236        -8.73925         1.53341
H          6.74687        -8.11227         2.27215
O         -2.18869        -7.30080        -1.74497
H         -1.29650        -6.90515        -1.89008
O         10.74617        -1.43987         1.10895
H         10.14845        -1.84941         1.78373
O          9.89369         5.68496        -1.03653
H          9.62822         5.62670        -1.97707
O          1.62227         9.91009        -1.92713
H          2.08969         9.14076        -2.35599
O         -8.22607         1.15904        -2.57108
H         -7.70977         2.81264        -3.06987
O         -5.57698        -5.95482         1.53064
H         -4.78589        -6.18262         2.07946
O         -8.39232        -5.08081         1.87675
H         -7.46165        -5.36870         2.02761
O          4.91141        -1.91479        -0.90191
H          4.96882        -1.09119        -1.44129
O         -7.29460         6.01379        -2.12467
H         -7.38297         5.14225        -2.58646
O          9.02340         1.26868        -2.53324
H          9.55376         1.73328        -3.21290
O          2.59883         7.43864        -2.35872
H          1.99649         6.80399        -2.81073
H         12.03396        -1.31376        -1.36051
H         11.79667         0.97808        -2.03394
H         10.87785         3.30287        -1.08958
H          9.20593         5.17938         0.83023
H          8.47845         7.73766        -0.60741
H          7.10776         9.85673         0.33766
H          4.99921        10.93703         0.84970
H          2.56282        11.16061         0.09497
H         -0.27444        11.11013        -0.89459
H         -2.58774        11.04198        -0.54708
H         -5.06920        11.16689        -0.02834
H         -7.10892         9.96050        -0.21804
H         -8.48177         7.81224        -0.10071
H         -9.69412         5.52934        -0.01818
H        -10.68077         3.39743         0.55422
H        -11.67859         1.30710         1.31725
H        -11.63120        -1.13318         1.51893
H        -10.67496        -3.27858         0.96870
H         -9.66892        -5.61238         0.31698
H         -8.42865        -7.89813         0.03721
H         -7.14166       -10.10154        -0.65894
H         -5.00219       -11.26706        -0.77275
H         -2.47728       -11.21891        -0.89436
H          0.01592       -11.14561        -0.69888
H          2.46226       -11.04517        -0.69989
H          4.83857       -10.80658        -1.39702
H          7.03126        -9.90133        -0.86343
H          8.45416        -7.74437        -0.26625
H          9.51892        -5.64617        -0.60371
H         10.55143        -3.48834        -1.29080
