         320
 CSIRO Nanostructure Databank - Neutral Graphene Oxide Data Set
C         30.77737        31.69426        -2.11399
C         30.64596        32.94648        -2.07387
C         30.84224        36.19518        -1.72114
C         30.78750        37.51017        -1.71972
C         30.74523        40.57449        -1.33085
C         30.63806        41.61682        -0.64599
C         32.95315        28.70283        -1.23938
C         31.97091        29.41607        -1.61868
C         33.15201        31.53316        -1.62086
C         31.78490        30.76909        -1.81793
C         32.83674        32.93884        -1.02246
C         31.90443        33.81825        -1.97875
C         33.10317        35.99983        -1.11568
C         31.74553        35.23947        -1.48550
C         32.86460        37.44027        -0.50075
C         31.82061        38.27257        -1.26095
C         33.01610        40.35521        -0.34778
C         32.02170        39.75622        -1.38153
C         32.98374        41.86344        -0.18252
C         31.50946        42.51838        -0.00807
C         32.66203        44.31235         0.81438
C         31.49116        43.74355         0.60675
C         35.35662        27.19081         0.14968
C         35.27674        28.63914        -0.23235
C         33.92793        29.34176        -0.22409
C         35.29335        31.46475        -0.32607
C         34.14989        30.80948        -0.68875
C         35.38540        32.94738        -0.48683
C         34.12125        33.71240        -0.73825
C         35.18990        35.86601         0.33030
C         33.91072        35.11545        -0.13717
C         35.21109        37.36218         0.39982
C         34.21226        38.19051        -0.39183
C         35.19710        40.22030         0.99435
C         34.06365        39.62465         0.10291
C         35.24931        41.72484         0.82331
C         33.91746        42.38144         0.95765
C         35.16573        44.65502         0.37095
C         33.95112        43.94019         0.89869
C         35.38447        46.04964         0.89747
C         37.71861        27.09957         0.80239
C         36.39563        26.58484         0.41882
C         37.43741        28.54830         1.38683
C         36.29017        29.33806         0.72427
C         37.71905        31.49408         0.65748
C         36.38070        30.82572         0.50776
C         37.83960        32.94363         0.19362
C         36.46574        33.65945         0.33381
C         37.83422        35.86655         0.33927
C         36.50681        35.17789        -0.04441
C         37.79219        37.30181         0.78282
C         36.51013        38.06198         0.73164
C         37.71675        40.22543         0.70935
C         36.53959        39.55338         0.73514
C         37.72666        41.73002         0.94254
C         36.48091        42.41385         0.30456
C         37.70086        44.56008         0.71784
C         36.51044        43.91966         0.58862
C         37.86133        46.06442         1.12483
C         36.48551        46.59411         0.97403
C         40.19075        24.57415        -0.58969
C         39.13106        25.21440        -0.47266
C         40.27272        27.22978         0.07934
C         38.96364        26.50233         0.23135
C         40.30103        28.69992        -0.09596
C         38.67602        29.42611         1.66117
C         40.21691        31.45219         1.31039
C         38.82199        30.81370         1.09901
C         40.27659        32.93815         0.95574
C         38.95804        33.65930         1.02923
C         40.29798        35.88386         1.05483
C         39.10242        35.11948         0.65334
C         40.35623        37.30267         0.52815
C         39.09197        38.09317         0.96906
C         40.31290        40.19975         0.54468
C         38.99513        39.48377         0.29915
C         40.29602        41.69992         0.77157
C         38.99219        42.39547         0.52687
C         40.30339        44.58679         0.74323
C         38.98937        43.86643         0.25783
C         40.31240        46.06511         0.41128
C         38.92416        46.73723         0.25518
C         40.23176        48.83076         0.29988
C         39.21041        48.17710         0.54240
C         42.80069        24.54548        -0.32153
C         41.53914        25.18270        -0.82752
C         42.63502        27.27678         0.63943
C         41.46397        26.56647        -0.04596
C         42.84365        28.66878        -0.02880
C         41.53236        29.46046         0.25492
C         42.76972        31.41166         1.13252
C         41.46599        30.71771         0.76409
C         42.72181        32.94147         1.10121
C         41.45503        33.63609         1.03092
C         42.84755        35.74273         0.59374
C         41.57402        35.14259         1.27437
C         42.86068        37.28961         0.51317
C         41.61118        38.05203         0.97695
C         42.78054        40.23880         0.19145
C         41.49901        39.52931         0.57794
C         42.79918        41.74961         0.45470
C         41.45481        42.38491         0.02611
C         42.82453        44.58305         0.08205
C         41.50774        43.87052         0.22063
C         42.66171        46.04197        -0.29239
C         41.51946        46.74351         0.14744
C         42.69742        48.80857        -0.49500
C         41.63395        48.32428         0.43884
C         43.77950        25.17034         0.09382
C         45.20499        27.18132         1.08855
C         43.95199        26.45533         0.76544
C         45.17826        28.74131         1.28977
C         44.09964        29.38055         0.41411
C         45.20013        31.58603         0.74603
C         43.96411        30.87303         0.27451
C         45.06975        32.76753         1.40202
C         43.90043        33.61809         1.32029
C         45.50718        35.97266         1.63926
C         43.95862        35.14241         1.51679
C         45.43402        37.42714         1.03511
C         44.12658        38.06612         0.65414
C         45.30066        40.32654         0.29918
C         44.06371        39.57929         0.68475
C         45.21267        41.73268        -0.21219
C         43.99557        42.37992        -0.23840
C         45.15227        44.48947        -1.00087
C         43.81686        43.76764        -0.81821
C         45.05804        46.00391        -1.21972
C         43.69331        46.67987        -1.25858
C         43.64811        48.12180        -0.88746
C         47.64509        27.29189         0.75228
C         46.55408        26.73539         0.75301
C         48.03947        28.72691         0.80901
C         46.60648        29.46444         1.10202
C         47.67569        31.65942         0.09261
C         46.53773        30.92341         0.77624
C         47.79341        33.20105         0.21068
C         46.94593        33.95182         1.21839
C         48.00366        36.10625         0.75207
C         46.74221        35.28224         1.04831
C         47.79808        37.35956        -0.09894
C         46.62045        38.15003         0.43470
C         47.77623        40.32368        -0.05598
C         46.49351        39.52666        -0.21581
C         47.71893        41.69114        -0.25564
C         46.47114        42.40454        -0.45236
C         47.62970        44.59171        -0.56885
C         46.44561        43.82919        -0.62817
C         47.36400        45.97056        -0.77562
C         46.30166        46.64282        -0.76711
C         49.89980        28.75653        -1.01133
C         48.57298        29.24680        -0.52478
C         50.22415        31.46023        -0.44346
C         48.83165        30.84053        -0.40981
C         50.43636        33.00287        -0.29195
C         49.20750        33.75510         0.27219
C         50.27308        35.92517        -0.51141
C         49.20879        35.25660         0.28139
C         50.23647        37.44616        -0.73360
C         49.08732        38.15379        -0.06326
C         50.21051        40.34609        -0.76644
C         49.10822        39.62093         0.18929
C         50.28637        41.78892        -0.35186
C         48.98124        42.51061        -0.02487
C         50.20427        44.56783        -0.15042
C         48.94901        43.90733        -0.71651
C         50.88037        29.33425        -1.49400
C         52.21442        31.61456        -1.82466
C         51.38381        30.65727        -1.09751
C         52.15924        32.84702        -1.91055
C         50.98388        33.73313        -1.56814
C         52.22179        36.08959        -1.72320
C         51.18927        35.19922        -1.24451
C         52.48610        37.28994        -1.54576
C         51.62370        38.09915        -0.53516
C         52.54303        40.48232        -0.42672
C         51.55200        39.58832        -0.70903
C         52.69841        41.74392        -0.24614
C         51.49271        42.49434        -0.11957
C         51.24981        43.91242        -0.02261
O         49.60453        34.45170         1.47817
O         46.15882        33.25452         2.11855
O         39.34785        29.24394        -0.67147
O         34.86079        36.54238         1.56308
O         43.59303        37.67080        -0.69030
O         38.59505        26.34401         1.64451
O         46.85085        30.45035         2.13271
O         39.50389        29.00652         2.46892
O         43.39357        35.40556         2.83825
O         45.25425        45.09950        -2.34307
O         44.87294        40.21797         1.70683
O         51.27397        30.78346         0.32230
O         46.34312        38.24161         1.84274
O         41.93700        35.20717         2.73438
O         38.74544        35.49498        -0.75565
O         35.08941        33.51210        -1.80478
O         35.75462        30.24633         1.70582
O         44.48664        26.45284         2.10875
O         37.00061        37.46496         1.99579
O         47.87576        31.40244        -1.34813
O         33.34923        29.31512         1.04832
H         32.57018        29.90786         1.07190
O         36.00801        33.55953         1.68665
H         36.77880        33.66859         2.30001
O         38.85747        39.34890        -1.13144
H         39.65094        38.85512        -1.45753
O         37.60020        41.98022         2.37570
H         38.45703        41.70516         2.78544
O         32.64704        40.01184        -2.67248
H         32.04486        39.67253        -3.37049
O         32.35589        37.32817         0.83863
H         31.43265        37.00054         0.79257
O         41.80761        38.04757         2.40313
H         40.93529        38.24541         2.82802
O         44.79528        28.92123         2.65812
H         44.41440        29.82814         2.77016
O         33.79843        36.09954        -2.34547
H         34.72179        35.75146        -2.25216
O         52.09943        37.82223         0.76131
H         52.92402        38.32576         0.92280
O         43.06697        31.06198         2.50682
H         42.26341        31.29211         3.03713
O         40.33900        44.48728         2.21169
H         39.68572        45.14191         2.58044
O         47.45644        36.93755        -1.44968
H         46.96627        37.69213        -1.86984
O         41.67993        25.51577        -2.18313
H         41.65750        24.69837        -2.72100
O         36.45175        35.37956        -1.48018
H         37.22595        34.91224        -1.87482
O         38.50547        46.59779        -1.09315
H         39.15527        47.03711        -1.67965
O         49.61535        40.24507        -2.07129
H         50.22493        40.65051        -2.72316
O         40.39048        31.44647         2.77191
H         40.21513        30.50647         3.05806
O         40.40816        41.82599         2.22804
H         40.59445        42.77998         2.44668
O         43.65829        31.19559        -1.11758
H         44.50625        31.27929        -1.60267
O         43.44637        44.62839         1.40727
H         43.25289        43.76084         1.85848
O         36.95149        28.25307         2.71114
H         37.64641        27.72495         3.16327
O         49.59290        39.91595         1.53110
H         49.20879        39.24842         2.14217
O         41.15628        42.10325        -1.35867
H         41.79991        42.60245        -1.92124
O         47.25597        33.73026        -1.04174
H         47.68529        33.24192        -1.78375
O         48.99765        42.75377         1.39968
H         49.16025        41.88520         1.83940
O         42.06227        48.42243         1.76863
H         42.20367        49.36378         1.99497
O         32.14581        32.63092         0.18895
H         32.22250        33.39995         0.80689
O         42.91213        28.46126        -1.45767
H         43.08916        29.34446        -1.85809
O         42.93718        42.01781         1.87101
H         43.72061        41.50035         2.19369
O         47.55707        29.00945        -1.47132
H         47.86222        29.30376        -2.35425
O         50.01034        33.65743        -2.60598
H         50.30672        34.21006        -3.35958
O         40.51719        37.32604        -0.92427
H         39.92753        36.62288        -1.29941
O         43.13078        46.52270        -2.56016
H         43.63358        45.80616        -3.01584
O         51.50898        33.18999         0.62621
H         51.26744        32.81227         1.49686
O         38.17294        32.95658        -1.20364
H         38.95940        32.39030        -1.35193
O         36.59766        42.25224        -1.13670
H         35.83426        42.73467        -1.53572
O         42.18123        27.53809         1.97503
H         42.94810        27.40601         2.58736
O         33.44799        42.41781        -1.41329
H         33.13466        41.84048        -2.15057
O         38.26907        46.14331         2.49515
H         37.50299        45.92351         3.06541
O         33.72643        31.56340        -2.91952
H         34.34578        32.33221        -2.97164
O         34.85024        39.86284         2.35229
H         34.01460        40.34086         2.57336
O         38.55245        33.63756         2.42921
H         39.10613        32.97056         2.90439
O         46.25047        39.32589        -1.64456
H         46.56346        40.12248        -2.12460
O         33.27090        41.98816         2.18948
H         33.70491        42.46244         2.92930
O         35.03773        44.69653        -1.05551
H         34.14888        45.04325        -1.28203
O         49.16018        43.70377        -2.11225
H         49.02396        44.55532        -2.57868
O         42.84603        40.13421        -1.25960
H         42.88110        39.17325        -1.48634
O         35.82041        28.77063        -1.54353
H         35.13701        28.48679        -2.18991
O         42.94926        35.21149        -0.71936
H         43.27170        35.92798        -1.31339
O         34.82404        38.31464        -1.69268
H         34.24759        38.88293        -2.25764
O         48.94590        29.05056         1.81798
H         48.56635        28.81450         2.68925
O         39.24139        38.35979         2.37986
H         38.35015        38.22779         2.79561
O         43.20085        43.66199        -2.13033
H         43.85403        43.25729        -2.73995
O         48.40626        36.64406         2.02995
H         48.65304        35.88747         2.60754
O         39.01200        43.99114        -1.19233
H         38.27808        43.43153        -1.54451
O         45.72288        36.09228         3.02448
H         45.06844        36.70777         3.41448
O         33.10817        34.88520         1.03262
H         33.37122        35.57383         1.69866
O         32.51435        33.87144        -3.24891
H         32.15419        34.62807        -3.75550
O         49.94539        37.61287        -2.15810
H         49.02989        37.26049        -2.29739
