         671
 CSIRO Nanostructure Databank - Neutral Graphene Oxide Data Set
C          5.83310        31.85339         0.52859
C          5.64315        33.21189         0.52465
C          8.36880        27.54499         0.52719
C          8.32297        28.96438         0.77150
C          7.07664        29.70869         0.65294
C          8.35177        31.77608         0.77755
C          7.08104        31.08916         0.56557
C          8.53114        33.06431         0.38125
C          6.69614        34.17919         0.24827
C          8.25423        36.11066         0.53598
C          6.95052        35.43710         0.72004
C          8.28686        37.49393         0.39109
C         10.88313        23.32441         0.06940
C         10.83407        24.71472         0.44721
C          9.60100        25.42185         0.43436
C         10.72445        27.47746         1.37211
C          9.52555        26.79080         0.74482
C         10.81216        28.91707         0.87100
C          9.50333        29.63379         1.07327
C         10.80286        31.77368         1.29688
C          9.47608        31.07087         1.51729
C         10.78748        33.23625         1.40596
C          9.53524        33.95721         0.95739
C         10.73351        36.10074         0.63313
C          9.51597        35.41041         0.64472
C         10.76041        37.51556         0.37882
C          9.51153        38.21864         0.27358
C         10.74295        40.32545         0.02494
C          9.52823        39.61788         0.12743
C         10.77148        41.74680         0.03157
C         13.29819        19.03166        -0.45396
C         13.26467        20.45250        -0.33781
C         12.08364        21.17748        -0.26084
C         13.33752        23.26588         0.22337
C         12.06547        22.60010        -0.03319
C         13.31577        24.71829         0.53432
C         12.03571        25.40183         0.75941
C         13.21500        27.44829         1.50594
C         12.05188        26.77716         1.15583
C         13.21083        28.90327         1.92104
C         12.00413        29.64460         1.41290
C         13.29549        31.73063         1.30138
C         12.02583        31.05286         1.34830
C         13.31477        33.20101         1.19467
C         12.05494        34.00085         1.27950
C         13.19219        36.03303         0.47411
C         12.00993        35.39359         0.74924
C         13.28235        37.53183         0.58467
C         11.98134        38.21606         0.25674
C         13.22699        40.30989        -0.18626
C         11.99058        39.60571         0.03299
C         13.18827        41.69702        -0.33009
C         11.98028        42.43610        -0.05709
C         13.23873        44.51868         0.34793
C         12.04001        43.84960         0.23611
C         13.35759        45.91304         0.66236
C         15.63409        14.67365        -0.89016
C         15.71547        16.15798        -0.59472
C         14.53926        16.89094        -0.59435
C         15.73929        19.00620        -0.12873
C         14.49760        18.31287        -0.40427
C         15.77961        20.37712        -0.03880
C         14.57740        21.19768        -0.45035
C         15.75055        23.15084         0.73822
C         14.51558        22.56973         0.17524
C         15.74990        24.54283         1.25869
C         14.56084        25.40995         0.99671
C         15.80106        27.45632         2.02930
C         14.44152        26.64206         1.88721
C         15.72735        28.91714         1.60760
C         14.51903        29.60532         1.57001
C         15.77132        31.68720         1.06530
C         14.52032        31.01362         1.28543
C         15.76569        33.06049         0.50467
C         14.45984        33.79689         0.45750
C         15.72452        35.97748        -0.04951
C         14.42469        35.26874         0.18269
C         15.73277        37.46506        -0.06506
C         14.51891        38.17889        -0.00131
C         15.70760        40.22460        -0.59060
C         14.49612        39.57033        -0.25660
C         15.68718        41.68355        -1.01229
C         14.42458        42.44612        -0.61638
C         15.77537        44.39605         0.43567
C         14.48020        43.86077        -0.12640
C         15.81506        45.91376         0.39663
C         14.56323        46.59196         0.60503
C         15.79827        48.80644         0.42971
C         14.54003        48.08461         0.85397
C         15.79260        50.17362         0.32369
C         18.28369        10.60567        -1.99240
C         18.23953        11.95125        -1.58131
C         17.00774        12.67129        -1.49629
C         18.18572        14.65581        -0.72611
C         16.97023        13.98791        -1.07554
C         18.18251        16.07147        -0.41983
C         16.98213        16.78021        -0.34451
C         18.16157        18.99072        -0.57069
C         17.02261        18.22258         0.10803
C         18.23362        20.36494         0.08371
C         17.03712        21.04256         0.26452
C         18.22052        23.13377         0.82856
C         17.05293        22.46084         0.59126
C         18.24278        24.65174         0.77650
C         17.05356        25.27919         1.53427
C         18.26005        27.48469         1.42460
C         16.92570        26.78142         1.20584
C         18.22040        28.86453         1.49267
C         16.97193        29.59787         1.42334
C         18.25820        31.74299         1.03536
C         16.99235        31.00546         1.17642
C         18.25166        33.16769         0.67361
C         17.01658        33.84748         0.41274
C         18.21023        35.96485         0.01063
C         16.99316        35.22733         0.14580
C         18.20659        37.36247        -0.32981
C         16.94810        38.11591        -0.37415
C         18.17320        40.18897        -1.08582
C         16.91525        39.50147        -0.67658
C         18.20839        41.68951        -0.92634
C         16.95914        42.42092        -0.58510
C         18.30208        44.37072         0.23170
C         16.99552        43.69492        -0.11660
C         18.28137        45.88856         0.12570
C         17.02546        46.60564         0.31145
C         18.22539        48.76957         0.12222
C         17.03134        48.06266         0.28567
C         18.25546        50.19372         0.02777
C         16.99588        50.93476         0.06007
C         18.20395        53.04201        -0.57381
C         16.96136        52.29523        -0.14407
C         18.23884        54.51884        -0.24166
C         20.78931         6.40737        -2.83495
C         20.77373         7.80948        -2.52183
C         19.54100         8.51231        -2.36805
C         20.71091        10.55324        -1.61298
C         19.49935         9.87928        -2.00321
C         20.69148        11.88014        -1.20652
C         19.44825        12.60600        -1.16740
C         20.59799        14.56666        -0.05026
C         19.39968        13.94200        -0.72224
C         20.65879        16.06870        -0.29276
C         19.47835        16.75644        -0.38368
C         20.76225        18.97911        -0.32690
C         19.48843        18.23404        -0.57668
C         20.68446        20.38332         0.12869
C         19.48628        21.00918         0.36168
C         20.73976        23.11482         1.05816
C         19.45811        22.32217         1.11788
C         20.68729        24.52244         1.51000
C         19.49121        25.32771         1.28490
C         20.76740        27.42384         1.55549
C         19.50142        26.71853         1.46764
C         20.78027        28.90383         1.67006
C         19.46243        29.65108         1.65065
C         20.74794        31.78972         1.31506
C         19.44827        31.08510         1.28758
C         20.74652        33.25466         0.85914
C         19.45113        33.88399         0.52059
C         20.67100        35.93864        -0.15872
C         19.44696        35.26062         0.12688
C         20.65154        37.28847        -0.52851
C         19.42840        38.00256        -0.58819
C         20.73172        40.16312        -0.86327
C         19.47010        39.37518        -1.23184
C         20.71271        41.62022        -0.80422
C         19.50584        42.35749        -0.69980
C         20.71393        44.46078        -0.50973
C         19.50875        43.73108        -0.40521
C         20.73230        45.90545        -0.29030
C         19.47627        46.57006         0.03790
C         20.70819        48.73319        -0.36910
C         19.52984        48.05134         0.34625
C         20.72254        50.22802        -0.19081
C         19.47890        50.89110        -0.07394
C         20.72112        53.05218        -0.41536
C         19.45198        52.39255         0.05554
C         20.63991        54.49420        -0.85021
C         19.41362        55.23301        -0.35442
C         20.67008        57.39746        -0.31775
C         19.47615        56.65386        -0.20063
C         20.72380        58.79895        -0.27136
C         23.23807         3.56599        -3.01151
C         22.01182         4.24913        -2.97593
C         23.26031         6.37828        -2.93501
C         21.96975         5.66252        -2.88371
C         23.24543         7.87392        -2.65316
C         21.98499         8.49472        -2.28663
C         23.23237        10.60905        -1.55061
C         21.98025         9.75600        -1.46636
C         23.21254        11.88750        -1.04543
C         21.93006        12.56605        -0.83403
C         23.13606        14.51407         0.05803
C         21.89196        13.85315        -0.36664
C         23.17787        16.01430         0.12588
C         22.00353        16.75922        -0.48857
C         23.20132        18.86490         0.11835
C         22.02243        18.22355        -0.09069
C         23.23932        20.34743         0.21978
C         21.95362        21.11902         0.26098
C         23.21209        23.17882         0.92793
C         21.93535        22.49474         0.81019
C         23.24027        24.55730         1.19033
C         22.02321        25.29092         1.55468
C         23.23821        27.45525         1.27360
C         21.98341        26.75420         1.43395
C         23.23473        28.90294         1.21111
C         22.02561        29.62953         1.31476
C         23.21997        31.74517         0.91183
C         22.01588        31.03725         1.17270
C         23.22150        33.14749         0.51857
C         21.98765        33.80643         0.31263
C         23.22743        35.85602        -0.55592
C         21.92375        35.14045        -0.28551
C         23.12778        37.30995        -0.22439
C         21.94775        37.98685        -0.92545
C         23.27756        40.14010        -0.71016
C         21.90942        39.48643        -0.71635
C         23.21094        41.65482        -0.61999
C         21.93779        42.33136        -0.75642
C         23.14338        44.46771        -1.02823
C         21.90308        43.74384        -0.75139
C         23.12256        45.96893        -0.92728
C         21.91183        46.61652        -0.42525
C         23.23045        48.82554        -0.57792
C         22.04138        48.06554        -0.00399
C         23.18076        50.22919        -0.59667
C         21.93364        50.92288        -0.35981
C         23.21983        53.11220        -0.43593
C         21.90482        52.37146        -0.46320
C         23.12685        54.55664        -0.84676
C         21.94986        55.21530        -0.69947
C         23.23230        57.40215        -0.62107
C         21.94768        56.66379        -0.43842
C         23.17163        58.86871        -0.69646
C         21.94482        59.53804        -0.44499
C         23.15137        61.65978        -0.62037
C         21.95855        60.95776        -0.43804
C         24.46372         4.21420        -2.88927
C         25.70249         6.29237        -2.40906
C         24.53489         5.63683        -2.73606
C         25.72093         7.69798        -1.86156
C         24.54436         8.54358        -2.31804
C         25.76705        10.53136        -1.28516
C         24.52320         9.95380        -1.84113
C         25.73105        11.84562        -0.77564
C         24.45568        12.56501        -0.66257
C         25.63223        14.47097         0.52322
C         24.41515        13.81263        -0.09443
C         25.64492        15.99150         0.42192
C         24.50216        16.68783         0.16539
C         25.61855        18.80419         0.86708
C         24.55367        18.18679        -0.05099
C         25.67466        20.31427         0.75280
C         24.47491        21.02659         0.66823
C         25.67588        23.14004         0.95024
C         24.44276        22.44420         0.81638
C         25.65441        24.56825         0.97795
C         24.46028        25.28779         1.11181
C         25.70180        27.45187         1.10886
C         24.44271        26.74232         1.16063
C         25.70305        28.90272         1.12014
C         24.46119        29.61297         1.07906
C         25.68658        31.72434         0.70216
C         24.45601        31.03144         0.91254
C         25.69584        33.13636         0.44251
C         24.46545        33.81102         0.27907
C         25.71456        36.01088         0.07370
C         24.56537        35.15375        -0.42794
C         25.63966        37.34709         0.35324
C         24.30625        38.03718         0.33815
C         25.54401        40.28045         0.48317
C         24.17359        39.56829         0.42478
C         25.58551        41.74027         0.14279
C         24.36782        42.38116        -0.41861
C         25.60728        44.48445        -0.88225
C         24.43144        43.78733        -0.77682
C         25.60023        45.92196        -1.35195
C         24.44779        46.63769        -0.62978
C         25.65189        48.77126        -1.09761
C         24.44124        48.12692        -0.85906
C         25.73169        50.25201        -0.83006
C         24.39709        50.97545        -0.87486
C         25.67659        53.08647        -1.05902
C         24.42141        52.35299        -0.93150
C         25.65693        54.59393        -0.82967
C         24.37142        55.20098        -1.43249
C         25.69073        57.44315        -1.08275
C         24.34812        56.77590        -1.45061
C         25.62396        58.84052        -0.89457
C         24.39441        59.57638        -0.85962
C         24.36348        60.99367        -0.80859
C         27.04347         8.47179        -2.08773
C         28.18595        10.51628        -1.13469
C         26.99579         9.85716        -1.46211
C         28.17551        11.84574        -0.65662
C         26.93628        12.48655        -0.43415
C         28.17239        14.45840         0.60546
C         26.92059        13.96432        -0.13795
C         28.16226        15.97735         0.62309
C         26.93807        16.68099         0.60753
C         28.17489        18.77601         0.91835
C         26.95628        18.09391         0.72893
C         28.20826        20.27482         0.69887
C         26.90048        21.01087         0.91990
C         28.16671        23.14969         1.35114
C         26.90319        22.40566         0.98440
C         28.19660        24.55357         0.81691
C         26.90334        25.30061         0.74625
C         28.18472        27.40511         1.13602
C         26.89419        26.75196         0.94781
C         28.18849        28.92436         1.18731
C         26.90824        29.61781         1.04264
C         28.15316        31.68974         0.52742
C         26.91822        31.01830         0.77625
C         28.06661        32.98274        -0.09210
C         26.92572        33.78761         0.09936
C         28.03027        35.94710         1.02535
C         27.05679        35.30175        -0.04101
C         28.13257        37.43594         0.71879
C         26.87127        38.14650         0.57145
C         28.07584        40.34228         0.63800
C         26.82847        39.53321         0.50037
C         28.15936        41.74500         0.11996
C         26.88518        42.48772         0.05237
C         28.15273        44.53864        -0.83406
C         26.88343        43.89978        -0.43321
C         28.12254        45.90100        -1.15689
C         26.90794        46.64440        -1.14956
C         28.14811        48.77125        -1.34587
C         26.89509        48.04512        -1.22463
C         28.12921        50.22158        -1.60720
C         26.79078        50.95677        -1.67231
C         28.14657        53.12788        -1.13981
C         26.86085        52.43270        -1.29799
C         28.14217        54.52230        -1.00824
C         26.90589        55.26406        -1.43361
C         26.88511        56.74896        -1.16780
C         29.41136        12.59727        -0.49270
C         30.64488        14.63509         0.15859
C         29.43091        13.87479        -0.00106
C         30.64762        15.93108         0.60144
C         29.39170        16.66312         0.78054
C         30.69269        18.70109         1.49162
C         29.39910        18.06648         0.97141
C         30.69371        20.23124         1.49175
C         29.40638        20.97798         1.30294
C         30.66927        23.11976         1.13181
C         29.46344        22.43227         1.09189
C         30.70079        24.56330         1.04360
C         29.46790        25.29356         0.97085
C         30.69793        27.40294         0.75275
C         29.44196        26.66777         0.91254
C         30.70211        28.92283         0.81532
C         29.43714        29.66173         0.99346
C         30.64165        31.77414         1.14543
C         29.41013        31.04621         0.89838
C         30.67899        33.14867         1.29791
C         29.52913        33.99776         1.62257
C         30.59552        35.91736         0.46855
C         29.38375        35.26764         1.10105
C         30.62411        37.42150         0.62644
C         29.35600        38.10384         0.68561
C         30.65802        40.29962         0.50971
C         29.37426        39.57729         0.78033
C         30.63201        41.72913         0.06922
C         29.33480        42.41027        -0.16221
C         30.59650        44.45672        -0.85865
C         29.37903        43.80209        -0.65499
C         30.66624        45.86420        -1.28042
C         29.36935        46.62905        -1.43798
C         30.63037        48.79254        -1.16752
C         29.36636        48.10110        -1.34956
C         30.62267        50.17688        -0.98012
C         29.45778        50.98126        -1.33241
C         29.35036        52.40111        -1.01725
C         31.98531        16.59887         0.84811
C         33.08062        18.83567         0.73983
C         31.94696        18.10873         0.89542
C         33.14879        20.27905         0.94468
C         31.93990        20.98695         1.23557
C         33.16063        23.11680         1.06384
C         31.92865        22.39296         1.15847
C         33.17231        24.54087         1.08200
C         31.93151        25.26205         1.06347
C         33.16179        27.40590         1.07278
C         31.95889        26.68812         0.97505
C         33.14249        28.85386         1.18474
C         31.97546        29.57450         1.11862
C         33.20559        31.73841         1.22132
C         31.91577        31.01959         1.54335
C         33.20387        33.12358         1.06740
C         31.91241        33.81406         0.75233
C         33.15156        35.99613         0.73262
C         31.86722        35.29918         1.09221
C         33.10408        37.35287         0.43075
C         31.84758        38.06704         0.43864
C         33.16980        40.25528         0.38220
C         31.85935        39.51950         0.00654
C         33.16698        41.66650        -0.14932
C         31.89273        42.27713        -0.53036
C         33.15841        44.49851        -0.75660
C         31.88969        43.74834        -0.88103
C         33.10763        45.91739        -0.77544
C         31.90802        46.63369        -1.00322
C         31.83993        48.03190        -0.98134
C         34.34894        20.97872         0.82668
C         35.61337        23.12469         0.91358
C         34.39999        22.40073         0.95518
C         35.64483        24.53774         0.98720
C         34.40007        25.26425         1.07073
C         35.64652        27.40451         1.13958
C         34.40485        26.68585         1.13302
C         35.66836        28.81410         1.24229
C         34.40851        29.55048         1.63482
C         35.64198        31.66917         1.02381
C         34.43024        31.01352         1.25285
C         35.63886        33.09763         0.53417
C         34.39851        33.86747         0.88974
C         35.66308        36.03145         0.94517
C         34.37638        35.26173         0.78530
C         35.65356        37.35983         0.24580
C         34.37095        38.02141         0.03010
C         35.68374        40.25003        -0.11967
C         34.39045        39.52203        -0.13620
C         35.62780        41.65813        -0.19733
C         34.37923        42.36052        -0.33447
C         34.34749        43.77733        -0.58157
C         36.86049        25.26947         0.93169
C         38.10314        27.41328         0.90059
C         36.88488        26.67606         0.99055
C         38.11608        28.80939         0.91009
C         36.87694        29.52995         1.08177
C         38.10736        31.68860         0.85563
C         36.87632        30.96196         1.00342
C         38.12805        33.09733         0.84518
C         36.91886        33.84758         0.78755
C         38.16805        35.96380         0.54746
C         36.92040        35.23161         0.72258
C         38.10143        37.36577         0.26509
C         36.87232        38.06992         0.10617
C         36.86621        39.49446        -0.11051
C         39.33228        29.56279         0.73957
C         40.56752        31.70218         0.48357
C         39.34384        30.94370         0.72649
C         40.60703        33.04908         0.56682
C         39.42397        33.83911         1.07097
C         39.37083        35.26734         0.60268
O         22.88490        56.92539         0.70786
O         20.29941        18.69262        -1.72716
O         26.87723        43.60617         1.02151
O         23.29121         7.34297        -4.02963
O         20.83463        32.87928         2.28346
O         24.80032         9.60182        -3.28008
O         14.89799        35.52368        -1.19065
O         34.22594        38.69171        -1.31450
O         22.72824        21.01663        -0.99904
O         18.08015        41.06563        -2.25430
O          9.79653        33.71638         2.39976
O         22.18659        37.90125        -2.31970
O         15.52477        23.46827         2.21599
O         31.85418        42.70090        -1.92637
O         22.48269        35.33546        -1.67090
O         23.28990        37.43478         1.22501
O         21.38024        24.78261         2.76805
O         25.46325        41.29175         1.54545
O         30.91876        41.35420         1.47794
O         12.96216        33.90606         2.44342
O         24.11024        57.22710        -2.75492
O         14.89192        33.04659        -0.70487
O         23.00763        45.31466        -2.23545
O         14.33306        43.59947        -1.55339
O         29.86789        20.66226         2.66346
O         28.70042        40.11787         1.95271
O         28.96514        50.63092        -2.70369
O         14.19718        25.52229        -0.38915
O         22.94339        15.25415         1.36171
O          7.69890        33.62905        -0.59073
O         28.25766        28.12279         2.43923
O         20.16826        29.39293         2.91963
O         30.09849        46.11973        -2.61208
O         30.69675        28.22341        -0.48977
O         27.59397        24.78577        -0.48694
O         19.33618        21.93474         2.53415
H         18.51314        21.40840         2.62744
O         25.69007        54.86946         0.58236
H         24.89670        54.43926         0.99273
O         39.59962        33.90619         2.54633
H         39.67466        32.98164         2.86666
O         26.18857        50.35748         0.55989
H         25.63054        49.76347         1.10598
O         16.51251        26.97706        -0.15564
H         17.09819        26.44912        -0.74680
O         24.67011        46.47484         0.79839
H         23.95608        46.97025         1.27037
O         28.60231        33.48753         2.48281
H         28.89484        32.60817         2.79755
O         23.91043        39.82903        -1.97344
H         23.33924        39.12776        -2.42474
O         17.33936        25.15799         2.94335
H         16.91366        24.31860         3.24542
O         14.12733        26.09775         3.19355
H         14.67229        26.60307         3.84916
O         23.44983        39.88684         1.61991
H         23.98610        39.61994         2.39474
O         27.60696        35.59326        -1.35249
H         26.88307        35.39888        -1.99650
O         28.46075        20.41272        -0.74171
H         27.68342        20.05356        -1.22176
O         33.32365        40.25719         1.82117
H         32.56421        40.76750         2.19370
O         25.15210        18.52995         2.22187
H         25.83547        18.84057         2.85201
O         14.77966        14.43658        -2.01819
H         15.17614        14.87445        -2.79901
O         27.33196        35.82739         2.27959
H         27.94359        36.08391         3.00005
O         15.72043        44.03380         1.85329
H         16.64151        44.10096         2.20287
O         31.86970        33.63463        -0.69907
H         30.92381        33.55830        -0.97434
O         23.49869        53.22233         1.03394
H         23.76123        52.32958         1.34834
O         21.98697         9.26661        -0.06370
H         21.79233        10.03500         0.51551
O         26.91055        55.14247        -2.88552
H         25.97061        54.98985        -3.17772
O         24.29682        54.78720        -2.82381
H         24.07426        55.65710        -3.29798
O         30.54051        35.73001        -0.97303
H         31.32830        36.16091        -1.36802
O         19.35406        52.68542         1.48860
H         20.15869        52.33118         1.92253
O         18.47940        44.12341         1.68913
H         19.39148        44.39822         1.92692
O         28.19972        14.00344         1.97833
H         27.29920        14.13237         2.36257
O         25.54045         7.55347        -0.41471
H         26.09519         6.80236        -0.11637
O         28.13746         7.72166        -1.54980
H         28.10920         7.80388        -0.57441
O         20.36787        14.38630         1.38810
H         21.18102        14.72118         1.83874
O         19.74407        48.15904         1.80162
H         18.94323        47.80445         2.24389
O         17.77000        19.17269        -1.94603
H         18.58678        19.39066        -2.44981
O         16.16196        27.48723         3.42633
H         16.77971        26.72652         3.59090
O         35.57541        32.98622        -0.93906
H         34.67788        32.66101        -1.16918
O         10.49458        27.48665         2.79889
H         11.26408        27.92563         3.23294
O         31.83730        30.98733         3.01331
H         32.62157        30.46933         3.32607
O         13.09572        28.91490         3.39842
H         13.97377        28.67072         3.76637
O         15.66394        41.63773        -2.45952
H         15.40373        42.53449        -2.76931
O         18.10604        24.95818        -0.65026
H         18.81814        24.49153        -1.13636
O         26.92393        14.60987        -1.44607
H         27.66579        14.23373        -1.96558
O         25.57126        14.12744         1.93674
H         24.71672        14.49019         2.26892
O         18.24356        52.89486        -2.01811
H         18.94751        53.50111        -2.36833
O         32.96907        16.13487        -0.08092
H         32.69661        16.40619        -0.98108
O         30.74886        18.27252         2.88743
H         30.24988        18.94604         3.40597
O         31.70686        39.52595        -1.43397
H         32.53547        39.14575        -1.82095
O         24.98154        34.80687        -1.79903
H         24.14905        34.75487        -2.33116
O         24.95535        18.43628        -1.41769
H         24.28423        18.02086        -2.00408
O         20.54705        48.49315        -1.78929
H         19.78723        49.02342        -2.10925
O         13.46744        37.73933         2.04286
H         12.68985        37.35174         2.50032
O         11.02598        28.82335        -0.58333
H         11.13153        29.73207        -0.93635
O         25.44045        45.97911        -2.78685
H         24.54161        45.63035        -3.01203
O         13.38048        48.68225         0.26370
H         13.43667        48.56747        -0.70697
O         14.77747        21.43780        -1.89069
H         13.98746        21.91720        -2.22030
O         29.06417        33.40293        -0.90827
H         28.83080        34.31531        -1.24737
O          9.21267        31.07761         2.95436
H          9.31547        32.01487         3.24729
O         20.45333        54.44798        -2.32447
H         21.28453        54.10763        -2.72321
O         22.27671        16.75290        -1.92658
H         21.60492        17.35773        -2.33035
O         22.32599        48.07862         1.42805
H         21.46913        47.96312         1.91243
O         19.58664        39.06616        -2.64222
H         19.29829        39.86575        -3.13856
O         31.71682        35.43394         2.52996
H         32.60498        35.37460         2.94107
O         26.35308        50.88232        -3.04560
H         27.12661        51.10138        -3.61103
O         34.34094        29.52695         3.11611
H         35.18459        29.89719         3.45411
O         17.31648        18.22136         1.53367
H         16.63003        17.68716         1.98515
O         35.68980        36.36057         2.39721
H         36.53843        36.82186         2.57440
O         28.11768        23.30008         2.81306
H         28.48999        22.48431         3.21486
H          4.92770        31.23813         0.66693
H          4.62760        33.59154         0.72043
H          7.46012        27.04229         0.16007
H          6.13456        29.14841         0.55707
H          6.18072        35.97828         1.29048
H          7.34161        38.05495         0.34729
H          9.92754        22.81083        -0.11716
H          8.70059        24.90325         0.06883
H          8.57835        40.17255         0.11262
H          9.83364        42.30235         0.17959
H         12.34816        18.48456        -0.55787
H         11.12002        20.64578        -0.30072
H         11.09964        44.36554         0.48361
H         12.44235        46.48756         0.87243
H         15.12553        14.18030        -0.01311
H         13.59778        16.36792        -0.82036
H         14.43161        48.23654         1.96715
H         14.84265        50.71547         0.44553
H         17.35342        10.10118        -2.29270
H         16.07014        12.16143        -1.76204
H         15.98980        52.81181        -0.19118
H         17.31009        55.03609         0.04879
H         19.82387         5.88353        -2.90069
H         18.59978         7.99160        -2.59710
H         18.53744        57.19370         0.00195
H         19.78967        59.36599        -0.13856
H         23.22660         2.46972        -3.09497
H         21.07061         3.68330        -3.02371
H         23.13750        62.75858        -0.60127
H         21.01804        61.50579        -0.28322
H         25.39174         3.62725        -2.83470
H         26.63084         5.70791        -2.30102
H         26.54978        59.38164        -0.63328
H         25.29568        61.56386        -0.92647
H         27.21943         8.56945        -3.18937
H         29.14681        10.00882        -1.30547
H         29.08775        55.05909        -0.83231
H         27.82233        57.31092        -1.32298
H         30.34994        12.12013        -0.81543
H         31.60581        14.15133        -0.07734
H         31.52077        50.68421        -0.59771
H         30.25750        52.93233        -0.69032
H         32.33105        16.26167         1.86625
H         34.00135        18.32005         0.42388
H         34.03956        46.48148        -0.61641
H         32.76650        48.59581        -0.79123
H         35.28059        20.42598         0.63428
H         36.56186        22.57409         0.82197
H         36.56545        42.23108        -0.25086
H         35.30141        44.32610        -0.56591
H         37.80906        24.72118         0.82797
H         39.05023        26.86372         0.79019
H         39.04443        37.92106         0.14858
H         37.83498        40.01390        -0.16287
H         40.27403        29.01075         0.59802
H         41.46881        31.13816         0.19745
H         41.54830        33.58681         0.37610
H         40.31923        35.79798         0.42866
