         344
 CSIRO Nanostructure Databank - Neutral Graphene Oxide Data Set
C          1.27101         2.05267        -0.27200
C          1.23574         3.48402        -0.42356
C          2.44555         1.37884        -0.26471
C          2.38408         4.25320        -0.38291
C          1.14465         6.41362        -0.26255
C          1.13606         7.82368        -0.13453
C          2.31995         5.69442        -0.18832
C          2.26002         8.56824         0.19218
C          1.16177        10.69799        -0.56638
C          1.21126        12.05789        -0.86548
C          2.29187         9.99135        -0.11131
C          2.39948        12.80182        -0.72670
C          1.29903        14.98595        -1.27526
C          1.33796        16.36229        -1.46121
C          2.46299        14.23612        -0.98513
C          2.55399        17.07315        -1.37736
C          2.62231        18.49281        -1.54479
C          3.70130         2.11190        -0.65607
C          3.67989         3.57860        -0.26475
C          4.96944         1.40088        -0.30128
C          4.82568         4.25484         0.03851
C          3.52451         6.37415         0.34318
C          3.47175         7.85485         0.67728
C          4.84900         5.77153        -0.07055
C          4.74416         8.62600         1.10436
C          3.51720        10.71103         0.03227
C          3.56355        12.11735        -0.26823
C          4.65315        10.08408         0.62598
C          4.79374        12.84346        -0.15275
C          3.71440        14.92147        -0.91769
C          3.76019        16.34721        -1.12488
C          4.90247        14.22002        -0.55943
C          4.98816        17.03895        -1.08270
C          3.81570        19.16137        -1.44400
C          5.04250        18.45761        -1.19802
C          6.11190         2.07193         0.04102
C          6.06239         3.51411         0.49958
C          7.37532         1.40720         0.02028
C          7.33169         4.27703         0.21764
C          6.10233         6.46445         0.43532
C          6.10340         7.86271         0.77436
C          7.29613         5.70073         0.29891
C          7.36318         8.48336         1.00409
C          5.66305        10.95246         1.01386
C          5.89359        12.23074         0.46373
C          7.54994         9.85718         1.38951
C          7.26916        12.76051         0.21222
C          6.17245        14.86968        -0.50921
C          6.23403        16.27179        -0.95994
C          7.35978        14.21508        -0.11537
C          7.52997        17.04349        -0.74506
C          6.25291        19.16267        -0.98048
C          7.46115        18.51556        -0.65213
C          8.57822         2.12367        -0.05452
C          8.53626         3.59080        -0.02266
C          9.80422         1.42925        -0.17800
C          9.78149         4.28701        -0.12099
C          8.58244         6.39348         0.15582
C          8.60220         7.86508         0.49033
C          9.85455         5.65162         0.16050
C          9.91836         8.44904         0.82317
C          8.64848        10.61349         1.00962
C          8.55529        11.97736         0.40986
C          9.94183         9.90185         1.22151
C          9.87614        12.73765         0.12800
C          8.60479        14.91863         0.01822
C          8.66902        16.33263        -0.14663
C          9.82036        14.23650         0.38907
C          9.83934        17.06526         0.13386
C          8.62373        19.19876        -0.26824
C          9.82696        18.50739         0.04462
C         11.03510         2.08548        -0.45043
C         10.99644         3.58169        -0.66230
C         12.23162         1.43607        -0.67203
C         12.27832         4.20858        -0.17925
C         11.10370         6.30152         0.49953
C         11.09776         7.73172         0.86150
C         12.26289         5.49950         0.46210
C         12.34256         8.51476         1.05222
C         11.14510        10.64463         0.75026
C         11.10980        12.04063         0.64773
C         12.36021         9.94879         0.81794
C         12.31105        12.75794         0.77185
C         10.99648        14.94638         0.61316
C         11.05592        16.38805         0.49270
C         12.22877        14.21106         0.99494
C         12.26433        17.11732         0.59098
C         11.02384        19.21151         0.27664
C         12.25879        18.55219         0.45949
C         13.47930         2.19433        -1.07263
C         13.46510         3.58131        -0.45558
C         14.74720         1.42338        -0.75139
C         14.74260         4.30206        -0.32238
C         13.53880         5.87416         1.02138
C         13.54947         7.98099         1.44761
C         14.75412         5.51725         0.51399
C         14.84109         8.52602         1.07200
C         13.58359        10.66663         0.82135
C         13.55079        12.08647         0.86480
C         14.83296         9.95829         0.81961
C         14.79724        12.83022         0.94072
C         13.51636        14.94053         1.21374
C         13.55248        16.44984         1.05761
C         14.79750        14.21074         1.05217
C         14.75171        16.78423         0.21234
C         13.45306        19.37069         0.55931
C         14.69748        18.92167         0.08733
C         15.96016         2.02784        -0.49834
C         16.01097         3.51802        -0.42921
C         17.18797         1.30910        -0.26616
C         17.21398         4.08274         0.29576
C         16.02384         6.21772         1.03537
C         15.97199         7.74578         0.86219
C         17.25472         5.59258         0.40132
C         17.17516         8.44451         0.23864
C         16.03054        10.66620         0.65899
C         16.03751        12.09889         0.75146
C         17.26068         9.92331         0.53363
C         17.24502        12.79731         0.57192
C         16.10777        14.97498         1.17111
C         16.01139        16.30815         0.47469
C         17.28768        14.20300         0.62020
C         17.19385        17.04153         0.08876
C         16.01489        19.32936         0.31143
C         17.18103        18.51174        -0.00614
C         18.43777         1.95349        -0.16177
C         18.44292         3.45310        -0.38343
C         19.67979         1.30620        -0.12495
C         19.68755         4.18037         0.13958
C         18.43485         6.31693         0.27708
C         18.46751         7.71547         0.49671
C         19.67897         5.63886        -0.33096
C         19.74215         8.42242         0.80097
C         18.46444        10.59073         0.42652
C         18.43126        12.04405         0.02985
C         19.72694         9.91700         0.54692
C         19.72488        12.77769         0.20547
C         18.45591        14.91227         0.26526
C         18.42990        16.34207         0.08251
C         19.70382        14.19535         0.13222
C         19.66728        17.00905        -0.20510
C         18.38489        19.16694        -0.20293
C         19.64804        18.46695        -0.60315
C         20.93225         2.02025        -0.15529
C         20.96944         3.44006        -0.09871
C         22.17205         1.33058        -0.19152
C         22.17438         4.14860         0.04952
C         20.96780         6.33692        -0.01776
C         20.92583         7.82172        -0.12299
C         22.16066         5.62269         0.14224
C         22.21223         8.48875         0.20200
C         20.91476        10.62158         0.43324
C         20.93388        12.06257         0.24292
C         22.21513         9.90904         0.71137
C         22.16945        12.77318         0.14507
C         20.91917        14.90727        -0.01958
C         20.87477        16.32682        -0.21504
C         22.16225        14.18889        -0.01744
C         22.13316        17.06579        -0.62158
C         20.90397        19.17107        -0.15811
C         22.10133        18.51451        -0.16171
C         23.38372         2.01748        -0.08398
C         23.39193         3.42238         0.07329
C         24.67167         1.22445         0.01158
C         24.66525         4.11837         0.34961
C         23.39096         6.34075         0.21261
C         23.40573         7.76769         0.23009
C         24.66374         5.63438         0.40321
C         24.67182         8.48883         0.21267
C         23.45887        10.65010         0.30798
C         23.42508        12.05751         0.16061
C         24.67625         9.91086         0.19878
C         24.63755        12.78688         0.05543
C         23.39479        14.90932        -0.09853
C         23.39823        16.34143        -0.21907
C         24.63001        14.19255        -0.01305
C         24.56188        17.06099        -0.03325
C         23.34791        19.18733         0.08774
C         24.55990        18.51154         0.04497
C         25.93818         2.03925        -0.16163
C         25.93481         3.44297         0.02079
C         27.14342         1.37859        -0.38749
C         27.13093         4.19109        -0.06413
C         25.92357         6.35317         0.13993
C         25.89835         7.77863         0.06347
C         27.12638         5.64331        -0.00639
C         27.11198         8.49163        -0.18339
C         25.91258        10.60698        -0.02103
C         25.94401        12.07707         0.30083
C         27.08681         9.91772        -0.28634
C         27.13309        12.80579        -0.26071
C         25.88215        14.90627        -0.05353
C         25.87784        16.38130         0.23554
C         27.07551        14.22173        -0.28759
C         26.99030        17.12713        -0.52569
C         25.82493        19.20148         0.17043
C         27.02896        18.56615        -0.06154
C         28.36737         2.08732        -0.41581
C         28.36287         3.50412        -0.26523
C         29.61752         1.40275        -0.56624
C         29.59919         4.22654        -0.28324
C         28.35887         6.36807        -0.14502
C         28.35078         7.78192        -0.22919
C         29.60563         5.65367        -0.20333
C         29.59919         8.51310        -0.28579
C         28.31214        10.63040        -0.81511
C         28.32908        12.12273        -0.54697
C         29.60311         9.92589        -0.45933
C         29.54775        12.83127        -0.68984
C         28.27845        14.97331        -0.81588
C         28.28847        16.40320        -0.38568
C         29.58183        14.24389        -0.61608
C         29.53923        17.17225        -0.68234
C         28.29417        19.20991         0.10257
C         29.50598        18.56865        -0.10524
C         30.80241         2.09026        -0.53988
C         30.82315         3.51489        -0.39651
C         32.04334         4.23823        -0.37131
C         30.83769         6.35724        -0.20046
C         30.83218         7.80947        -0.19088
C         32.04774         5.61480        -0.26624
C         32.03073         8.55849        -0.16133
C         30.81011        10.63037        -0.53315
C         30.80606        12.06749        -1.03285
C         32.02001         9.93309        -0.32864
C         32.04486        12.85443        -0.69518
C         30.79545        14.96168        -0.51002
C         30.81325        16.39456        -0.40359
C         32.02282        14.18463        -0.46044
C         31.97128        17.12196        -0.14528
C         30.74602        19.21687         0.15668
C         31.93784        18.51945         0.09061
O          3.26093         6.81009         1.70533
O         14.59945        17.76513        -0.75015
O          8.52379         7.42285        -0.90832
O         24.68634         4.81594         1.64261
O         13.52758         6.75264         2.12128
O         12.70916        14.54158         2.37875
O         15.55555         4.27388        -1.58003
O          7.17166        16.51084        -2.06678
O          6.52329        10.53880         2.01520
O          7.81625        11.89278        -0.88923
O         28.10354        14.95305        -2.30462
H         27.27455        15.47218        -2.47650
O          4.71063         8.70594         2.54476
H          4.34424         7.85075         2.86878
O         24.65274         0.12299        -0.90528
H         24.59717         0.48093        -1.81462
O         30.77086        11.91942        -2.50921
H         30.70446        12.82344        -2.88652
O         28.22093        10.52810        -2.27962
H         29.05851        10.91770        -2.63613
O          3.68767         2.12834        -2.13405
H          2.86769         2.59420        -2.40538
O         26.59443        17.12825        -1.94076
H         27.29054        17.63993        -2.41439
O         18.30191         3.54045        -1.80913
H         18.38219         4.48294        -2.09259
O         10.09289         9.88678         2.70457
H         10.95085         9.45331         2.90562
O         10.12021        12.69185        -1.31288
H          9.24611        12.50413        -1.74023
O         17.12360         3.55160         1.66191
H         16.71463         4.25801         2.22816
O         16.95277         8.36887        -1.22008
H         16.25905         9.02347        -1.44976
O         26.12309        12.12353         1.77287
H         25.37281        11.62883         2.16917
O         29.49424        17.34496        -2.16097
H         29.32610        16.44039        -2.53104
O         19.50584         5.77453        -1.76940
H         19.53820         6.74777        -1.95957
O         18.22073        12.00245        -1.43988
H         18.25773        12.92842        -1.76275
O         22.13687        17.09324        -2.08237
H         21.34327        17.62013        -2.35558
O         16.10027         5.94229         2.47637
H         15.24437         6.25237         2.86138
O         13.43617         2.40250        -2.53396
H         14.20855         2.97810        -2.74652
O         16.36148        15.18258         2.59547
H         16.30686        14.31061         3.03914
O          5.95370         3.47012         1.96544
H          5.13134         2.98400         2.18711
O         26.20475        16.54560         1.64712
H         25.60383        15.97168         2.16674
O         19.68354        18.48308        -2.09404
H         18.83401        18.10419        -2.40741
O         20.49261         8.24158        -1.46804
H         21.27542         8.20906        -2.05823
O         10.95592         3.79779        -2.10793
H         11.74415         3.33292        -2.48968
O         22.32175         9.80320         2.18091
H         21.57665         9.21927         2.47769
O         13.84428        16.99773         2.37654
H         13.40489        16.40186         3.02536
O          4.86621         6.04457        -1.51777
H          5.73039         5.74455        -1.87340
O         20.14127         8.15324         2.17018
H         20.10300         7.18272         2.31784
O         19.62997         4.28353         1.59602
H         18.86756         3.74075         1.92238
H          0.31991         1.52593        -0.10599
H          0.24917         3.96691        -0.43293
H          2.47671         0.28800        -0.13030
H          0.21017         5.92549        -0.57227
H          0.21006         8.33732        -0.42509
H          0.19625        10.18739        -0.67802
H          0.29067        12.54424        -1.21495
H          0.32588        14.48006        -1.33532
H          0.40740        16.91034        -1.66844
H          1.69292        19.04636        -1.74350
H          5.03805         0.33791        -0.58357
H          3.84794        20.25527        -1.55268
H          7.39389         0.31374        -0.10808
H          6.22921        20.26291        -0.99458
H          9.78911         0.32947        -0.12159
H          8.62216        20.29897        -0.24489
H         12.28533         0.33887        -0.59414
H         11.01246        20.31001         0.21404
H         14.69889         0.32485        -0.81833
H         13.35232        20.39289         0.95384
H         17.14554         0.20846        -0.23746
H         16.20386        20.31908         0.75332
H         19.71629         0.20566        -0.09099
H         18.39583        20.26803        -0.20679
H         22.18486         0.23273        -0.25825
H         20.85413        20.24368         0.08583
H         24.70867         0.76743         1.04062
H         23.33343        20.27426         0.26257
H         27.14425         0.28528        -0.50621
H         25.81148        20.27181         0.43017
H         29.61064         0.30939        -0.68375
H         28.30155        20.25392         0.45685
H         31.75824         1.55502        -0.63728
H         32.99349         3.68945        -0.44413
H         33.01286         6.13872        -0.25907
H         32.99789         8.05224        -0.04340
H         32.98007        10.46516        -0.34758
H         33.01717        12.34311        -0.72689
H         32.97409        14.70233        -0.27312
H         32.94204        16.61444        -0.05560
H         30.74196        20.27363         0.46275
H         32.88282        19.03875         0.30413
