         424
 CSIRO Nanostructure Databank - Neutral Graphene Oxide Data Set
C          1.30498         3.30400        -0.16335
C          0.11271         3.71733         0.39404
C          1.23613         5.68299         1.25056
C          0.09002         4.89705         1.16290
C          1.23288         7.98033         1.52761
C          0.04465         8.71385         1.63079
C          1.20461        10.67178         0.81940
C          0.00737        10.03230         1.20816
C          1.19402        12.10794         0.52190
C         -0.00230        12.84147         0.48728
C          1.17221        14.93028         0.00893
C         -0.01654        14.21256         0.23985
C          1.18422        16.37488        -0.14304
C         -0.03662        17.14655        -0.10614
C          1.14141        19.26220        -0.53002
C         -0.05883        18.49803        -0.32271
C          1.13627        20.61575        -0.83881
C         -0.07187        21.39068        -0.92046
C          1.19010        23.50423        -1.00087
C         -0.04359        22.75152        -1.04808
C          1.18241        24.94880        -0.89716
C         -0.02453        25.68902        -0.93005
C          1.18548        27.79520        -0.73331
C         -0.02180        27.06831        -0.86449
C          1.18960        29.24499        -0.67291
C          0.01546        29.99810        -0.90031
C          1.21731        32.07964        -0.52899
C          0.04055        31.38185        -0.87116
C          1.20799        33.59920        -0.60901
C         -0.03463        34.25639        -0.07088
C          1.21195        36.29042         0.46538
C         -0.01795        35.54498         0.35338
C          1.22267        37.66841         0.77129
C          3.73330         3.49214        -0.32161
C          2.49411         4.08021        -0.01439
C          3.63139         6.24566         0.57421
C          2.45045         5.38636         0.58805
C          3.63218         7.69305         0.69337
C          2.42071         8.50522         0.96140
C          3.71870        10.64352         0.70670
C          2.39908         9.91466         0.74029
C          3.64581        12.08161         0.24165
C          2.41608        12.79549         0.24437
C          3.63242        14.88903        -0.27369
C          2.40277        14.20431        -0.02106
C          3.62896        16.32965        -0.41489
C          2.39635        17.04636        -0.31934
C          3.61466        19.13498        -1.02935
C          2.44698        18.56291        -0.21619
C          3.66921        20.63374        -0.94281
C          2.39236        21.33750        -1.30777
C          3.64677        23.49770        -0.84501
C          2.40187        22.81266        -0.99072
C          3.65556        24.93149        -0.75428
C          2.41156        25.65313        -0.77525
C          3.64845        27.79152        -0.50109
C          2.40940        27.07892        -0.66452
C          3.64539        29.19635        -0.32868
C          2.40163        29.93662        -0.40204
C          3.62240        32.06413         0.23487
C          2.39185        31.35492        -0.28510
C          3.73946        33.49978        -0.31400
C          2.46039        34.25017        -0.08967
C          3.69420        36.28700         0.57077
C          2.45503        35.58452         0.30697
C          3.66994        37.68144         0.84915
C          2.41379        38.35914         0.92434
C          6.16053         3.49433        -0.08190
C          4.92498         4.17844        -0.02542
C          6.10684         6.29326         0.31888
C          4.86574         5.58552         0.29316
C          6.08183         7.72895         0.29452
C          4.84091         8.39321         0.39256
C          6.10214        10.59661        -0.01749
C          4.78000         9.85232        -0.04437
C          6.10063        11.99454        -0.08917
C          4.84664        12.74686        -0.03872
C          6.11506        14.82717        -0.52626
C          4.83721        14.14725        -0.29809
C          6.13101        16.34119        -0.56646
C          4.84935        17.05060        -0.51257
C          6.10163        19.16742        -0.52140
C          4.89302        18.45685        -0.63008
C          6.11106        20.60093        -0.59325
C          4.85330        21.31784        -0.77126
C          6.10150        23.46682        -0.63043
C          4.86739        22.77243        -0.75920
C          6.11424        24.89746        -0.63366
C          4.88310        25.62803        -0.67319
C          6.10639        27.77488        -0.47718
C          4.89155        27.07464        -0.54991
C          6.12184        29.18155        -0.27264
C          4.88750        29.89370        -0.17990
C          6.12298        31.99102         0.11543
C          4.90995        31.30309         0.00755
C          6.10969        33.42131         0.39642
C          4.95985        34.16763         0.28166
C          6.11453        36.28151         0.91295
C          4.92945        35.58408         0.58627
C          6.10445        37.68446         1.10272
C          4.89295        38.36915         1.07069
C          8.61765         3.43936         0.13977
C          7.37863         4.16122         0.14761
C          8.58617         6.33045         0.40902
C          7.32977         5.58207         0.29727
C          8.56248         7.77878         0.11016
C          7.33117         8.45722         0.10722
C          8.57002        10.58951        -0.19348
C          7.32931         9.88361        -0.04095
C          8.56536        12.00254        -0.29170
C          7.34710        12.69820        -0.21080
C          8.56916        14.84952        -0.01762
C          7.36790        14.12608        -0.22510
C          8.45293        16.27259         0.48261
C          7.34637        17.06576        -0.18135
C          8.54371        19.20961        -0.03940
C          7.32567        18.45751        -0.19113
C          8.56050        20.57944        -0.30139
C          7.32313        21.30175        -0.49279
C          8.55995        23.44464        -0.41245
C          7.33995        22.74684        -0.52780
C          8.56014        24.88083        -0.40013
C          7.35668        25.58621        -0.54774
C          8.61773        27.76115        -0.27700
C          7.39398        27.06873        -0.81526
C          8.60986        29.14460        -0.11078
C          7.36568        29.88683        -0.14312
C          8.62488        31.99987         0.17114
C          7.36988        31.28253         0.05472
C          8.63891        33.38822         0.48352
C          7.36939        34.04655         0.83991
C          8.64866        36.26717         0.97553
C          7.37450        35.53745         1.09138
C          8.65531        37.67477         1.13842
C          7.37733        38.42312         1.46310
C         11.10688         3.42644         0.21495
C          9.86072         4.08042         0.21613
C         11.09365         6.25204        -0.12799
C          9.86769         5.55826         0.35324
C         11.06224         7.73278        -0.29088
C          9.78752         8.47769        -0.10276
C         11.08135        10.58743        -0.59846
C          9.79786         9.85755        -0.25632
C         11.03751        12.00301        -0.00584
C          9.83667        12.78386        -0.57975
C         11.04824        14.90320         0.13253
C          9.79972        14.19837        -0.04692
C         11.05006        16.27571         0.36154
C          9.78404        17.01501         0.53774
C         11.08255        19.16830        -0.01415
C          9.79779        18.50574         0.31352
C         11.03362        20.55109        -0.37534
C          9.82481        21.27999        -0.40208
C         11.02695        23.41928        -0.33463
C          9.82118        22.71819        -0.42774
C         11.02795        24.83410         0.06450
C          9.79187        25.61551        -0.17272
C         11.05484        27.71484         0.43090
C          9.81656        26.99921        -0.08532
C         11.07061        29.18100         0.10223
C          9.86276        29.86682         0.02083
C         11.08901        32.01917         0.04962
C          9.85479        31.30647         0.04947
C         11.07606        33.45592         0.20055
C          9.83908        34.12199         0.50505
C         11.07904        36.26239         0.69710
C          9.84645        35.55231         0.73492
C         11.09626        37.67384         0.93148
C          9.86539        38.36013         1.12836
C         13.58570         3.47561         0.45790
C         12.35228         4.14051         0.27597
C         13.56787         6.29409         0.11364
C         12.37147         5.56028         0.11241
C         13.56057         7.73767        -0.03121
C         12.34578         8.45936        -0.17711
C         13.56357        10.57939        -0.21649
C         12.34338         9.85595        -0.21720
C         13.56718        12.03850        -0.17339
C         12.33957        12.76868        -0.08889
C         13.54164        14.91088         0.14297
C         12.30934        14.16505         0.06540
C         13.56359        16.29101         0.23775
C         12.32058        17.05442         0.62017
C         13.54833        19.14566        -0.15156
C         12.29119        18.47637         0.07915
C         13.56788        20.52135        -0.45436
C         12.29982        21.21577        -0.67627
C         13.58230        23.45401        -0.36987
C         12.29758        22.77032        -0.61221
C         13.59523        24.83265        -0.15436
C         12.34701        25.55410         0.14674
C         13.53482        27.71981        -0.05353
C         12.34824        27.02364         0.07831
C         13.53040        29.16391        -0.00745
C         12.32671        29.87618         0.04779
C         13.55624        32.03007        -0.16273
C         12.32506        31.32165        -0.02313
C         13.49819        33.51446        -0.44710
C         12.27258        34.18015         0.11910
C         13.53835        36.26961         0.48688
C         12.30261        35.57495         0.41576
C         13.55199        37.65974         0.81978
C         12.33724        38.35010         0.98921
C         16.04919         3.52742         0.74746
C         14.80269         4.18817         0.49061
C         16.03046         6.33747         0.32732
C         14.80286         5.60704         0.30516
C         16.03903         7.74887         0.12417
C         14.78610         8.45612        -0.05580
C         16.05790        10.56944        -0.54045
C         14.77682         9.86202        -0.19859
C         16.03439        12.04649        -0.24711
C         14.80429        12.71757        -0.11030
C         16.06612        14.90642        -0.03077
C         14.82312        14.14672         0.35165
C         16.04952        16.28683        -0.02224
C         14.80527        17.02524         0.08017
C         16.00219        19.07858        -0.73893
C         14.78900        18.40545        -0.12674
C         16.02149        20.57865        -0.57943
C         14.80190        21.27262        -0.54081
C         16.03419        23.42566        -0.47207
C         14.80406        22.71776        -0.48804
C         16.03717        24.86685        -0.39664
C         14.81344        25.57527        -0.23426
C         16.00305        27.70389        -0.45039
C         14.80391        27.00326        -0.21690
C         15.95248        29.19651        -0.71420
C         14.85181        29.87210         0.11202
C         16.02474        32.04390        -0.29677
C         14.78622        31.36103        -0.17210
C         16.04559        33.54033        -0.52803
C         14.77829        34.22808        -0.10269
C         16.04418        36.24209         0.53629
C         14.78455        35.55705         0.27025
C         16.01691        37.64407         0.93076
C         14.80386        38.32532         1.00655
C         18.49284         3.58479         1.17823
C         17.24281         4.22585         0.78229
C         18.47416         6.37533         0.60462
C         17.25752         5.64729         0.53374
C         18.45738         7.77006         0.55080
C         17.25761         8.45935         0.23021
C         18.49512        10.57532        -0.03660
C         17.30161         9.89082        -0.01377
C         18.51902        12.00642        -0.28898
C         17.26477        12.74446        -0.27791
C         18.51110        14.87388        -0.43970
C         17.29196        14.17386        -0.22571
C         18.55993        16.26987        -0.34922
C         17.34805        17.03294         0.12533
C         18.50497        19.12288        -0.54797
C         17.31464        18.44081        -0.38645
C         18.50033        20.56574        -0.72393
C         17.25696        21.27704        -0.65290
C         18.50326        23.39939        -0.69491
C         17.26498        22.70362        -0.60589
C         18.52129        24.85792        -0.49736
C         17.24570        25.60490        -0.50289
C         18.43421        27.77913        -1.09725
C         17.22264        27.00767        -0.59878
C         18.46500        29.23086        -0.65620
C         17.27406        29.90904        -0.49326
C         18.50199        32.06488        -0.31567
C         17.25100        31.34272        -0.34630
C         18.49427        33.49401        -0.09446
C         17.29807        34.19493        -0.00020
C         18.49136        36.14259         1.08077
C         17.25209        35.55732         0.44141
C         18.46950        37.65051         1.21714
C         17.24270        38.32121         1.19980
C         19.66787         4.24690         1.17080
C         20.93931         6.43626         1.06920
C         19.78289         5.62070         0.55382
C         20.90566         7.77071         1.16000
C         19.66226         8.60068         0.95719
C         20.99503        10.67723         0.23730
C         19.80382         9.79269        -0.00694
C         20.95987        11.99760        -0.06682
C         19.73110        12.67813        -0.40218
C         20.99136        14.87047        -0.79496
C         19.71133        14.09506        -0.93820
C         20.99981        16.21553        -0.67111
C         19.77986        16.98789        -0.51010
C         20.96976        19.16970        -0.66277
C         19.77311        18.40836        -0.52290
C         20.94655        20.53375        -0.82274
C         19.71682        21.26900        -0.84548
C         20.89974        23.45561        -1.25108
C         19.71172        22.71011        -0.89811
C         20.93404        24.81434        -1.27235
C         19.81461        25.60327        -0.74535
C         20.91818        27.80717        -0.86621
C         19.76079        27.07766        -0.91430
C         20.91427        29.22636        -0.79518
C         19.72683        29.93943        -0.61927
C         20.96972        32.09785        -0.29833
C         19.72161        31.37023        -0.40990
C         21.01641        33.44118        -0.13464
C         19.78256        34.23196        -0.06148
C         21.01097        36.33352         0.93536
C         19.78693        35.65091         0.45972
C         20.92376        37.60973         1.42354
C         19.68049        38.30112         1.49028
O         12.29073        22.03605        -1.88623
O         19.40701        25.23738         0.62803
O         19.76229        35.41555        -0.97476
O          1.19945         6.74036         2.16297
O         11.66548        25.05554         1.39697
O          9.80490        17.94196         1.70607
O         10.98193         6.83890        -1.47990
O          7.34094        34.57924         2.21639
O          9.38121         6.03152         1.64980
O          6.24583        15.54279        -1.82380
O         16.15758        10.45098        -2.01133
H         16.98684        10.90122        -2.28186
O         18.20423        27.84445        -2.56766
H         18.94621        28.36155        -2.95024
O         11.14658        10.65990        -2.05912
H         11.24450         9.74419        -2.39871
O         19.49991        13.93116        -2.39399
H         19.44005        14.83178        -2.77875
O          3.44734        32.19480         1.67607
H          3.45379        31.29559         2.06544
O          4.35313         9.81427        -1.43761
H          5.04473         9.35262        -1.95614
O         18.51421        35.61164         2.44935
H         17.73706        35.97615         2.92325
O          1.21014        33.86851        -2.08240
H          1.10488        34.83849        -2.19400
O          7.36040        38.70220         2.87942
H          7.34682        37.84468         3.35343
O         10.95971        27.64682         1.90281
H         11.11160        26.69595         2.13758
O         12.41801        17.20649         2.08561
H         11.55771        17.60408         2.37086
O          2.75379        18.86443         1.17855
H          2.01891        18.51843         1.72716
O          7.98408        16.12343         1.86284
H          8.30542        16.92181         2.34669
O         19.34648         9.18628         2.25173
H         19.18720         8.45607         2.88515
O         14.91826        14.03563         1.83135
H         14.74532        14.92995         2.19994
O          3.34986        18.76656        -2.42713
H          4.20195        18.78892        -2.91234
O          4.16422        10.69500         2.09762
H          3.48959        11.18250         2.61506
O         15.63029        29.34897        -2.11996
H         16.33960        28.88502        -2.62400
O          3.95505        33.42044        -1.75380
H          3.06630        33.42060        -2.18820
O         13.35710        33.62353        -1.92860
H         13.16790        34.56593        -2.12846
O          2.30955        21.26836        -2.78170
H          2.43801        20.31442        -3.01295
O         19.98080         9.22854        -1.33784
H         20.12797         9.96934        -1.96232
O          7.51414        27.17955        -2.29205
H          6.72013        26.75244        -2.67959
O         15.84735        18.84835        -2.19885
H         15.05231        19.34746        -2.48665
O         15.27409        29.73190         1.50534
H         14.53364        30.02185         2.07858
O         20.06636         5.38733        -0.86743
H         19.27809         4.95124        -1.25441
O         16.11286        33.70113        -1.99297
H         15.21454        33.46597        -2.33596
O         10.78131        11.80037         1.40983
H         10.85492        12.66587         1.86457
O          9.94684        12.96888        -2.01396
H         10.22125        12.10894        -2.41542
O         17.53147        17.16213         1.59709
H         17.65431        16.25508         1.95164
H          1.37302         2.33745        -0.68194
H         -0.79367         3.10429         0.29859
H         -0.81050         5.19015         1.71724
H         -0.84437         8.23283         2.05803
H         -0.93800        10.58445         1.27103
H         -0.96585        12.34627         0.66315
H         -0.98558        14.72844         0.24367
H         -0.99395        16.62867         0.03918
H         -1.03391        19.00313        -0.36758
H         -1.04674        20.89270        -0.82034
H         -1.00057        23.28830        -1.08952
H         -0.98886        25.17319        -1.02229
H         -0.98339        27.59668        -0.90191
H         -0.92766        29.49417        -1.14873
H         -0.87448        31.93820        -1.11582
H         -0.99118        33.71801        -0.13367
H         -0.95511        36.04030         0.65043
H          0.26440        38.19786         0.87813
H          3.77154         2.45666        -0.68929
H          2.40243        39.43566         1.14710
H          6.16143         2.41546        -0.29542
H          4.87299        39.45151         1.26557
H          8.57913         2.34482         0.03427
H          7.38811        39.41902         0.94926
H         11.13392         2.32638         0.20409
H          9.87934        39.44582         1.30396
H         13.59768         2.38322         0.58849
H         12.35433        39.42769         1.20934
H         16.04337         2.44625         0.95290
H         14.80040        39.39292         1.27253
H         18.44200         2.54421         1.53476
H         17.21624        39.40436         1.39509
H         20.59202         3.73880         1.48646
H         21.87471         5.89647         1.28803
H         21.79963         8.30662         1.51767
H         21.94875        10.20940         0.52242
H         21.88432        12.58813         0.01163
H         21.94472        14.34251        -0.94016
H         21.96561        16.74044        -0.66625
H         21.94391        18.66306        -0.63479
H         21.90041        21.07264        -0.89896
H         21.77485        22.90259        -1.62017
H         21.80303        25.33591        -1.69891
H         21.88768        27.29031        -0.81259
H         21.88505        29.73648        -0.79058
H         21.91727        31.54539        -0.34603
H         21.98443        33.95820        -0.07891
H         21.99281        35.86220         0.78720
H         21.83945        38.14518         1.71379
H         19.67551        39.37496         1.72804
