         314
 CSIRO Nanostructure Databank - Neutral Graphene Oxide Data Set
C         30.90144        56.81424        -1.67255
C         31.00381        58.14202        -2.21947
C         29.92599        58.71538        -2.94028
C         31.27078        60.66830        -3.46733
C         30.06680        59.96368        -3.54425
C         33.01925        52.74184         0.08975
C         33.06225        54.10952        -0.16318
C         31.93450        54.80968        -0.65438
C         33.24508        56.90949        -0.85796
C         31.96727        56.17298        -1.04254
C         33.35578        58.31421        -1.37731
C         32.20418        58.88898        -2.09709
C         33.62452        60.85080        -2.67507
C         32.36482        60.14373        -2.74027
C         35.16100        48.49447         0.86036
C         35.11790        49.85060         1.55414
C         34.08562        50.66656         0.80898
C         35.16299        52.80225         1.40762
C         34.11097        52.02283         0.69439
C         35.20564        54.27343         1.17818
C         34.40707        54.80717        -0.01853
C         35.09534        57.01739         0.82146
C         34.22902        56.29854         0.08166
C         35.21254        59.12230         0.11223
C         34.42529        59.27334        -0.99137
C         35.86821        61.17194        -1.62598
C         34.65275        60.43603        -1.83653
C         37.65075        44.24081         0.58887
C         37.58044        45.64949         0.81751
C         36.29052        46.19826         0.76915
C         37.82299        48.52916         1.74603
C         35.97795        47.49932         1.29041
C         37.67716        49.97365         1.72793
C         36.45877        50.60430         1.67445
C         37.65648        52.86940         1.72089
C         36.37818        52.09271         2.02793
C         37.73744        54.37225         1.88181
C         36.40486        55.07430         1.63950
C         37.67728        57.28617         1.09889
C         36.39168        56.53417         1.35243
C         37.72221        58.77719         0.77610
C         36.56539        59.65754         0.23713
C         38.08973        61.43868        -0.59044
C         36.83301        60.78732        -0.69637
C         40.16714        40.06781         0.22466
C         40.05910        41.45210         0.03055
C         38.88476        42.13798         0.34604
C         40.06531        44.32725         0.19405
C         38.84077        43.55842         0.36728
C         40.01161        45.74443         0.47199
C         38.85112        46.39991         0.89768
C         40.11304        48.62630         1.03118
C         38.89813        47.84532         1.19103
C         40.18286        49.98877         1.31169
C         38.97317        50.70317         1.78692
C         40.18314        52.94909         1.38030
C         38.95221        52.21509         1.78338
C         40.15538        54.30698         1.17712
C         38.81769        55.00730         0.97736
C         40.16069        57.21186         1.26012
C         38.83850        56.54211         1.10047
C         40.23171        58.71387         0.99916
C         39.06608        59.25943         0.18884
C         40.42070        61.40670         0.08935
C         39.16818        60.77190        -0.00210
C         42.83208        35.96253         0.66256
C         42.68821        37.27939         0.23811
C         41.47085        38.00287         0.35395
C         42.57805        40.11828        -0.34811
C         41.38354        39.36627         0.04118
C         42.51731        41.50825        -0.53094
C         41.18807        42.22139        -0.61340
C         42.49531        44.39297        -0.33377
C         41.23707        43.67908        -0.19699
C         42.50604        45.77160        -0.05240
C         41.21800        46.55515         0.05409
C         42.65344        48.55316         0.93666
C         41.35124        47.83780         0.84652
C         42.65741        50.03611         1.04564
C         41.40793        50.75924         1.20235
C         42.64186        52.90975         1.03822
C         41.41260        52.17396         1.23113
C         42.67728        54.30171         1.02060
C         41.39963        55.05275         0.74864
C         42.64662        57.18180         1.29811
C         41.43260        56.49420         1.19263
C         42.67906        58.63808         1.24157
C         41.54916        59.34578         0.87263
C         42.83291        61.43186         0.51372
C         41.60055        60.74830         0.49676
C         45.50113        33.48613         1.60059
C         44.23980        34.03944         1.36178
C         45.29746        36.00523         0.38826
C         44.11344        35.31764         0.76392
C         45.21184        37.28568        -0.30758
C         43.83460        37.97888        -0.37770
C         45.00014        40.14374        -0.84816
C         43.81623        39.43914        -0.49653
C         44.93359        41.53947        -1.05302
C         43.70616        42.24491        -0.80844
C         45.03146        44.32391        -0.52816
C         43.68544        43.67188        -0.69696
C         45.01070        45.83322        -0.57423
C         43.72272        46.57059        -0.26723
C         45.05363        48.54805         0.42417
C         43.84898        47.91595         0.33261
C         45.11948        49.90910         0.99419
C         43.85877        50.69213         0.94401
C         45.19980        52.87942         0.63877
C         43.88399        52.15407         0.77489
C         45.17427        54.35447         0.91444
C         43.92411        55.04008         1.11109
C         45.14274        57.16577         1.67492
C         43.90009        56.44737         1.32148
C         45.22898        58.66603         1.67482
C         43.93872        59.40241         1.42996
C         45.25585        61.44228         0.89789
C         44.01663        60.79449         0.92808
C         46.66337        34.18437         1.28437
C         47.75233        36.20401         0.33273
C         46.58600        35.46879         0.67920
C         47.69114        37.51735        -0.19907
C         46.40678        38.12075        -0.43861
C         47.48538        40.18095        -1.16363
C         46.29470        39.45888        -0.84227
C         47.38768        41.49337        -1.70291
C         46.11273        42.25115        -1.60974
C         47.39895        44.55612        -1.37509
C         46.13649        43.78728        -1.43607
C         47.48906        45.78647        -0.63052
C         46.29221        46.47698        -0.30088
C         47.63875        48.57576         0.25369
C         46.30149        47.91685        -0.04737
C         47.73872        49.91331         0.85679
C         46.45279        50.61961         1.12802
C         47.65365        52.50826         0.35470
C         46.44881        52.06575         0.85799
C         47.55536        54.61027         0.32178
C         46.36628        55.10162         0.89058
C         47.72874        57.22094         1.27814
C         46.46610        56.45197         1.46368
C         47.74568        58.67562         1.32072
C         46.51745        59.35431         1.37787
C         47.70479        61.44846         0.88165
C         46.49051        60.76596         1.10941
C         48.85787        38.24490        -0.52323
C         49.95701        40.26738        -1.41604
C         48.77974        39.54996        -1.06293
C         49.87672        41.56262        -1.96680
C         48.55537        42.04580        -2.23412
C         49.86077        44.59482        -1.68697
C         48.56315        44.14629        -2.03185
C         49.95588        45.79044        -0.91331
C         48.75488        46.39565        -0.44153
C         50.13207        48.26985         0.65015
C         48.81485        47.66420         0.31350
C         50.21393        49.74258         0.88183
C         48.99314        50.56588         0.91167
C         50.07161        52.92836         0.53036
C         48.96579        52.01348         0.70399
C         49.97945        54.34099         0.31432
C         48.81888        55.13729         0.58400
C         50.23019        57.13750         1.03427
C         48.87541        56.51912         0.95864
C         50.20767        58.64413         1.08168
C         49.00706        59.39007         1.16558
C         50.08762        61.66747         0.56354
C         48.97490        60.83488         0.93592
C         51.02601        42.40978        -2.14136
C         52.30129        44.49953        -1.83511
C         51.05504        43.82372        -1.97388
C         52.41102        45.77921        -1.23053
C         51.23621        46.35584        -0.65843
C         52.70105        48.21104         0.27263
C         51.36659        47.51004         0.23859
C         52.71624        49.59924         0.76326
C         51.47780        50.22596         1.16662
C         52.56563        53.10396         0.32605
C         51.42512        52.49215         0.80668
C         52.46023        54.38686        -0.38281
C         51.14002        55.09328        -0.19843
C         52.48832        57.28229        -0.17575
C         51.17233        56.57994        -0.03220
C         52.64100        58.55277         0.56971
C         51.51277        59.19209         1.12411
C         52.57429        62.04577         0.23236
C         51.45382        61.42585         0.81067
C         53.66180        46.50097        -1.20598
C         54.95564        48.59370        -0.72355
C         53.81270        47.74656        -0.58674
C         55.03413        49.88419        -0.14068
C         53.90579        50.29959         0.66921
C         54.97818        52.98650        -0.19682
C         53.88622        52.56340         0.51897
C         54.93678        54.35502        -0.75804
C         53.71487        55.15363        -0.53500
C         54.99547        57.25049        -0.49715
C         53.73679        56.52645        -0.47174
C         54.98684        58.65139        -0.20901
C         53.89210        59.19615         0.48725
C         55.03942        61.85689        -0.33560
C         53.90252        61.49804         0.33937
C         56.15525        50.76176        -0.35010
C         57.41472        52.90414        -0.44478
C         56.19899        52.18595        -0.29829
C         57.48364        54.32737        -0.49122
C         56.26249        55.10163        -0.81968
C         57.45380        57.23972        -0.35423
C         56.23139        56.56185        -0.61223
C         57.48195        58.66457        -0.25511
C         56.22766        59.42621        -0.44807
C         57.54285        61.54315         0.00504
C         56.26240        60.98321        -0.40324
C         58.65891        55.04967        -0.27914
C         59.88336        57.18058        -0.04927
C         58.68269        56.48393        -0.24484
C         59.91886        58.59669         0.04400
C         58.69640        59.34689        -0.08074
C         59.96573        61.41827         0.37076
C         58.71716        60.78680         0.07847
C         61.12565        59.28676         0.29577
C         61.13669        60.67930         0.45634
O         51.58414        51.48577         1.75783
O         39.18971        58.70902        -1.09989
O         37.08140        59.75713         1.61037
O         40.02120        58.22217         2.33862
O         33.93124        57.15075        -2.15917
O         51.42605        57.35899        -1.21717
O         36.14270        56.02138         2.72937
O         45.75757        43.18366        -2.68655
O         34.47180        53.74495         2.31743
O         44.38698        37.27737        -1.52795
O         51.70690        60.41357         1.76296
O         51.53872        54.54519        -1.50553
O         39.17618        51.42005         3.03858
O         45.76884        50.06526         2.31651
O         44.25412        46.46498        -1.65276
O         36.81819        47.82537         2.38671
O         49.35489        47.55081         1.67918
O         48.45448        43.18125        -3.04715
O         42.13294        47.77140         2.08171
O         44.45172        52.50168        -0.57251
O         55.59517        54.60196        -2.02982
O         34.76655        58.33021         1.16484
O         54.02666        51.48017         1.39626
O         56.28305        60.23284        -1.67374
O         47.54720        53.55213        -0.57574
O         47.04382        48.67724        -1.09061
O         52.31653        47.26422         1.33536
O         44.49518        59.26882         2.79136
O         54.07092        60.37997         1.19998
O         45.87296        56.56422         2.79721
O         45.49722        43.97611         0.82127
H         44.77572        44.16884         1.45710
O         38.43714        54.73744        -0.39533
H         39.17177        55.06388        -0.96704
O         35.20135        54.49838        -1.19157
H         34.91761        55.10462        -1.91201
O         38.15444        54.58904         3.24660
H         37.52726        55.24221         3.64344
O         34.64554        49.67039         2.91897
H         34.99304        50.42414         3.45222
O         50.83416        56.66480         2.28793
H         50.25071        56.93856         3.02776
O         41.29293        55.12784        -0.74051
H         41.74162        54.33644        -1.11116
O         40.92896        47.01599        -1.31287
H         40.94371        46.23399        -1.90476
O         40.86082        42.24666        -2.05331
H         41.64208        42.60846        -2.52441
O         36.17117        52.10544         3.47358
H         35.72225        52.95852         3.68550
H         29.96014        56.26338        -1.82375
H         28.98389        58.15733        -3.03834
H         31.37415        61.63690        -3.97702
H         29.22535        60.39066        -4.10786
H         32.10591        52.17578        -0.15200
H         30.99613        54.24876        -0.79230
H         33.73470        61.77795        -3.25677
H         34.50323        48.32789        -0.00447
H         33.23666        50.11870         0.37104
H         36.07286        62.04241        -2.26774
H         36.71149        43.66818         0.61922
H         35.47617        45.56312         0.38693
H         38.23590        62.42444        -1.06012
H         39.29333        39.51648         0.60557
H         37.99484        41.57485         0.66670
H         40.48851        62.47401        -0.17699
H         41.95375        35.43171         1.05997
H         40.57592        37.48124         0.72561
H         42.87145        62.48261         0.18920
H         45.57534        32.49216         2.06370
H         43.33401        33.48853         1.65217
H         45.29043        62.49949         0.59329
H         47.64907        33.74843         1.49960
H         48.73832        35.74821         0.50747
H         47.65384        62.52079         0.63962
H         49.84316        37.77955        -0.37557
H         50.93895        39.81805        -1.20871
H         49.82922        62.60713         0.04998
H         52.00652        41.90569        -2.11891
H         53.22186        43.97860        -2.13931
H         52.41719        62.87730        -0.46896
H         54.50568        46.08061        -1.77406
H         55.78345        48.25137        -1.36332
H         55.03681        62.73586        -0.99708
H         57.07522        50.27489        -0.71568
H         58.36215        52.34414        -0.40778
H         57.57251        62.59521         0.32882
H         59.59922        54.51061        -0.08831
H         60.82383        56.61786         0.04707
H         59.99063        62.50965         0.50087
H         62.06131        58.71725         0.39033
H         62.08733        61.19047         0.66332
