         324
 CSIRO Nanostructure Databank - Neutral Graphene Oxide Data Set
C          1.27666         3.28096        -0.44752
C          0.09100         3.79055        -0.94661
C          1.24183         5.84972        -1.50172
C          0.07910         5.07757        -1.50834
C          1.21880         8.17742        -1.38310
C          0.06374         9.02404        -1.58587
C          0.76360        10.95812        -0.23623
C         -0.13235        10.31092        -1.16656
C          1.20435        12.25121        -0.23991
C          0.76994        13.22074        -1.24928
C          1.06955        14.88543         0.49925
C          0.78774        14.53447        -0.95287
C          1.11169        16.37572         0.76063
C         -0.03521        17.10752         0.68090
C          1.10071        19.25958         0.97872
C         -0.04555        18.53758         0.83543
C          1.13514        20.75761         1.20640
C         -0.14991        21.47040         0.89627
C          1.05268        23.55251         0.40687
C         -0.16401        22.78888         0.61651
C          1.02049        24.94828         0.37735
C         -0.12639        25.72790         0.75476
C          1.15275        27.82755         0.66725
C         -0.07133        27.09402         0.85751
C          1.22617        29.22538         0.89271
C          3.69098         3.44545        -0.09144
C          2.46726         4.05739        -0.45958
C          3.66363         6.23511        -0.83160
C          2.45527         5.41286        -0.92033
C          3.62343         7.63969        -0.82777
C          2.40746         8.44363        -0.71769
C          3.63061        10.51129        -0.01543
C          2.54176         9.69236         0.03026
C          3.66223        11.83187         0.75560
C          2.33864        12.66813         0.65387
C          3.66154        14.85933         0.90455
C          2.35832        14.13748         0.92353
C          3.63116        16.24402         0.88510
C          2.38828        17.01257         1.09981
C          3.61826        19.29574         0.77433
C          2.39842        18.56531         1.12776
C          3.57146        20.69983         0.50975
C          2.34192        21.42755         0.57241
C          3.50346        23.47732        -0.12038
C          2.30400        22.80898         0.26661
C          3.48022        24.93584        -0.39486
C          2.20883        25.70077        -0.07076
C          3.56302        27.79531         0.19766
C          2.31948        27.13315         0.26149
C          3.62339        29.20603         0.43329
C          2.42642        29.89959         0.75074
C          6.10969         3.42239         0.03605
C          4.90495         4.12997        -0.17926
C          6.11777         6.24425        -0.38889
C          4.92014         5.55966        -0.51120
C          6.20477         7.68081        -0.67638
C          4.87349         8.43239        -0.86142
C          6.15848        10.63904        -0.27949
C          4.86309         9.92768        -0.59759
C          6.13142        12.02813         0.29063
C          4.91261        12.69132         0.50160
C          6.14421        14.82455         0.71397
C          4.89829        14.11067         0.71896
C          6.14219        16.31307         0.86909
C          4.85142        17.01632         0.59471
C          6.14079        19.24635         0.48757
C          4.84649        18.52494         0.51789
C          6.07599        20.71353         0.39290
C          4.77520        21.40443         0.18254
C          5.96036        23.47153        -0.62474
C          4.72847        22.77098        -0.15268
C          5.96975        24.97395        -0.74274
C          4.74759        25.70372        -0.32989
C          6.09351        27.73436         0.24871
C          4.77812        27.05191        -0.07190
C          6.07539        29.24096         0.16481
C          4.86475        29.90632         0.33367
C          8.54318         3.35957         0.20129
C          7.36312         4.07303         0.07582
C          8.60813         6.29209        -0.01368
C          7.31367         5.57537         0.25661
C          8.62800         7.67085        -0.01447
C          7.39631         8.44795        -0.21778
C          8.59819        10.51974         0.44031
C          7.37620         9.81601        -0.10250
C          8.61005        12.02146         0.27322
C          7.38455        12.72767         0.40371
C          8.65613        14.89746         0.56196
C          7.36217        14.14891         0.62391
C          8.68110        16.40461         0.52942
C          7.39620        17.12914         0.77886
C          8.58958        19.27933         0.10261
C          7.35161        18.58898         0.45207
C          8.60170        20.66435        -0.15336
C          7.36295        21.43091         0.09989
C          8.56920        23.55387        -0.32586
C          7.27898        22.79075        -0.50836
C          8.55805        24.98861        -0.74892
C          7.28828        25.71516        -0.77549
C          8.52918        27.80122        -0.32612
C          7.32087        27.13090        -0.38554
C          8.54349        29.22696        -0.00703
C          7.31973        29.91320         0.14089
C         11.08894         3.37078         0.51266
C          9.86103         3.98946         0.06621
C         11.13144         6.23597         0.24421
C          9.87636         5.54322        -0.10088
C         11.08132         7.67669         0.27057
C          9.89541         8.36086         0.08795
C         11.13309        10.60513         0.01739
C          9.86428         9.83985        -0.03143
C         11.12595        12.04651         0.30688
C          9.86916        12.70947         0.38222
C         11.13475        14.62387         1.06420
C          9.88969        14.08600         0.71757
C         11.16027        16.78641         0.88510
C          9.90970        17.26180         0.53994
C         11.05243        19.23432        -0.36236
C          9.83358        18.58521         0.02186
C         11.01808        20.63601        -0.71974
C          9.78085        21.32010        -0.59474
C         11.01941        23.53699        -1.07182
C          9.73013        22.76633        -0.90017
C         11.02928        24.99599        -0.82461
C          9.77704        25.69156        -0.74079
C         11.01591        27.79593        -0.48280
C          9.77863        27.11633        -0.57339
C         11.00845        29.18617        -0.04267
C          9.78906        29.86783         0.14062
C         13.52970         3.38915         0.73326
C         12.31904         4.07777         0.56307
C         13.55311         6.26848         0.80094
C         12.30069         5.53391         0.49853
C         13.62205         7.70517         0.50082
C         12.33770         8.41031         0.54736
C         13.65334        10.58940         0.28990
C         12.36746         9.89256         0.42582
C         13.63788        12.00506         0.26730
C         12.36991        12.72028         0.37423
C         13.61095        14.96327         0.66683
C         12.37839        14.10040         0.68807
C         13.57652        16.41330         0.24480
C         12.38395        17.22371         0.29057
C         13.48620        19.06658        -0.90602
C         12.26997        18.49320        -0.35062
C         13.48122        20.59667        -1.17739
C         12.23730        21.36422        -0.97008
C         13.48679        23.53305        -1.04713
C         12.27849        22.77933        -1.01004
C         13.49634        24.94542        -0.93326
C         12.25069        25.69943        -0.81316
C         13.50341        27.96527        -0.85686
C         12.24534        27.12327        -0.67563
C         13.48761        29.18273         0.10774
C         12.22697        29.76471         0.35647
C         16.06074         3.38327         0.52690
C         14.84053         4.01389         1.13715
C         16.09177         6.26717         0.68222
C         14.84636         5.53905         1.03144
C         16.08282         7.67908         0.51427
C         14.82789         8.40183         0.48148
C         16.08575        10.55130         0.24429
C         14.84799         9.85039         0.34887
C         16.07449        11.98809         0.18769
C         14.86020        12.70823         0.27828
C         16.09454        14.88790        -0.11717
C         14.89963        14.19265         0.42743
C         16.03029        16.24904        -0.42334
C         14.78772        17.01218        -0.27087
C         15.96189        19.12410        -1.06760
C         14.75031        18.36552        -0.68162
C         15.95062        20.60451        -0.92927
C         14.77442        21.29350        -1.00686
C         16.04156        23.50860        -1.06794
C         14.75519        22.77137        -1.17052
C         16.01822        25.00641        -1.08367
C         14.72365        25.69982        -0.91629
C         16.02358        27.75567        -0.84767
C         14.75866        27.09736        -0.84166
C         15.93501        29.62977         0.23998
C         14.59888        29.82569         0.68211
C         18.48162         3.38283         0.13066
C         17.23825         4.08036         0.39118
C         18.51876         6.22605         0.33891
C         17.27797         5.53355         0.48295
C         18.55309         7.65363         0.31405
C         17.30831         8.39134         0.31102
C         18.54674        10.54104        -0.07006
C         17.29569         9.80481         0.16070
C         18.56087        12.00463         0.06691
C         17.30495        12.72760         0.04545
C         18.61279        14.66441        -0.72911
C         17.29530        14.10571        -0.21179
C         18.58743        16.18044        -0.93787
C         17.26721        16.91567        -0.94795
C         18.56650        19.19045        -1.05844
C         17.27018        18.41793        -1.11876
C         18.54446        20.61851        -0.67390
C         17.22390        21.29289        -0.55013
C         18.49388        23.55144        -0.25982
C         17.21251        22.79552        -0.46158
C         18.53967        24.99777        -0.47968
C         17.31581        25.73333        -0.82413
C         18.43283        27.86325        -0.09390
C         17.25397        27.16804        -0.53314
C         18.37621        29.17502         0.50205
C         17.14111        29.81995         0.89135
C         19.67075         4.04397         0.11442
C         20.96030         6.16012         0.25904
C         19.73273         5.48008         0.24448
C         20.99590         7.55436         0.31154
C         19.81420         8.31059         0.29893
C         21.01186        10.58306         0.55679
C         19.87649         9.78155         0.09530
C         20.96968        11.94589         0.53916
C         19.77276        12.67939         0.21712
C         20.80106        14.94881         0.44566
C         19.77239        14.13305         0.08193
C         20.81007        16.35108         0.11326
C         19.82509        16.95653        -0.61240
C         21.04303        19.20932        -0.46047
C         19.88787        18.41692        -0.90046
C         20.98337        20.56561        -0.41478
C         19.74346        21.30019        -0.51378
C         20.99856        23.58611        -0.53264
C         19.80767        22.77111        -0.24912
C         20.96183        24.94577        -0.43103
C         19.72502        25.69872        -0.33476
C         20.85554        27.82555         0.27151
C         19.68671        27.15273        -0.10933
C         20.80655        29.13859         0.75865
C         19.58566        29.77349         0.93191
O          2.58179        25.36945        -1.46307
O         10.15701        23.15114        -2.22277
O         19.34700        10.11264        -1.22743
O         16.83747        25.47667        -2.21084
O         10.49861        10.28133        -1.27788
O          6.87238        21.36735         1.47217
O          6.80583        16.80337         2.08814
O         16.00897        29.13562        -1.08584
O         19.14906        23.16830         0.99361
O          5.71535         8.07140        -1.99520
O          2.45847        17.75724         2.35864
O          1.17626         7.05523        -2.22471
O         11.17856        15.77999         1.84035
O          2.03678        13.19416         2.00580
O          1.37352        10.09729         0.70529
O         17.88219        16.40773        -2.19629
O          5.55642        10.67488        -1.63578
O          6.46588        25.46040        -2.02537
O         16.92685        22.00130         0.73003
O         15.58446        23.05126        -2.37773
O         14.53213        14.67125         1.77698
O         12.21790         9.27402         1.75715
O         13.39453        19.63877        -2.26359
O          6.61333        22.82890        -1.78627
O         16.54901        18.72669        -2.36705
O          9.98311         4.67621        -1.25159
O          4.74614        17.65787        -0.72693
O          8.67590        15.65853        -0.74318
O         14.11013         6.07560         2.18308
O         19.40376        18.85840        -2.20357
O          1.34333        20.90385         2.65655
H          1.34700        21.86321         2.85875
O          8.76486        23.58046         1.12798
H          9.54090        24.14576         1.32722
O          7.11503         5.74823         1.71310
H          6.32771         5.21753         1.96260
O         13.41959        28.53764        -2.19325
H         14.25589        29.03452        -2.33928
O          6.27145        27.43658         1.69277
H          6.99480        28.01303         2.02168
O         14.93788         3.68152         2.56785
H         14.46101         4.40544         3.04124
O         18.80174        14.06470        -2.04324
H         18.32280        14.64068        -2.68464
O          3.81295        11.42767         2.14045
H          3.29375        12.06811         2.68517
O         -0.04698        14.36942         1.25295
H          0.32512        13.76238         1.93807
O          8.60184        10.29870         1.89235
H          7.80732        10.73094         2.27152
H          1.32229         2.25264        -0.06265
H         -0.82244         3.18071        -0.94832
H         -0.82764         5.47350        -1.98317
H         -0.66911         8.60666        -2.29308
H         -0.97599        10.88323        -1.57908
H          0.43364        12.85216        -2.23032
H          0.48379        15.30292        -1.67721
H         -0.98260        16.59569         0.46306
H         -1.02110        19.03886         0.77536
H         -1.10331        20.94571         1.04669
H         -1.12912        23.30027         0.49186
H         -1.06998        25.21719         0.99219
H         -0.97069        27.65280         1.15487
H          0.31546        29.77153         1.17752
H          3.68953         2.38711         0.20781
H          2.46937        30.98583         0.91617
H          6.06983         2.32532         0.11266
H          4.85767        31.00430         0.41487
H          8.49911         2.26438         0.30993
H          7.33395        31.00882         0.24770
H         11.05789         2.33046         0.86799
H          9.81332        30.92218         0.45532
H         13.48858         2.29002         0.78817
H         12.19694        30.74105         0.86526
H         16.06553         2.28810         0.41641
H         14.41097        30.53659         1.50266
H         18.44957         2.28933         0.01916
H         17.16086        30.43019         1.80727
H         20.61242         3.49162        -0.01913
H         21.89858         5.58991         0.20650
H         21.96806         8.06650         0.29527
H         21.90094        10.06956         0.95089
H         21.86464        12.51043         0.83794
H         21.67417        14.54955         0.98077
H         21.68771        16.92618         0.43747
H         21.98927        18.70800        -0.21617
H         21.89073        21.12628        -0.15024
H         21.94076        23.09052        -0.80759
H         21.89828        25.50275        -0.57790
H         21.82492        27.31084         0.23602
H         21.73583        29.64063         1.06120
H         19.54847        30.77160         1.39105
