         430
 CSIRO Nanostructure Databank - Neutral Graphene Oxide Data Set
C         27.97437        27.31041         0.40257
C         27.82799        28.77327         0.07846
C         26.81811        29.50114         0.93844
C         27.93814        31.65398         0.53146
C         26.87542        30.84858         1.09513
C         27.95743        33.06145         0.57038
C         26.77740        33.81918         0.87132
C         27.93163        35.96522         0.62021
C         26.75700        35.20067         0.81762
C         27.92516        37.38038         0.49551
C         26.71565        38.12954         0.60648
C         27.89497        40.22937         0.21317
C         26.70532        39.49864         0.49592
C         27.89130        41.66349         0.13213
C         26.68221        42.41001         0.20457
C         27.90562        44.51801         0.23037
C         26.68292        43.78640         0.24277
C         27.91780        45.93515         0.29488
C         30.38693        27.31313        -0.15063
C         29.16136        26.66633         0.24838
C         30.30976        28.76468        -0.57559
C         29.20261        29.46118         0.24487
C         30.35974        31.69459        -0.32021
C         29.07707        30.94022        -0.05928
C         30.36758        33.13338        -0.00548
C         29.18826        33.78147         0.32619
C         30.42248        35.98615         0.18758
C         29.24298        35.23380         0.74576
C         30.39601        37.37153         0.07012
C         29.14006        38.10701         0.22197
C         30.32640        40.22793        -0.45470
C         29.11032        39.49614         0.06011
C         30.36019        41.69064        -0.08624
C         29.13787        42.38132         0.05676
C         30.36718        44.53647         0.10844
C         29.13808        43.81370         0.14017
C         30.35734        45.96363         0.17554
C         29.10814        46.63316         0.27000
C         32.87302        24.53440        -0.08007
C         31.69099        25.21017         0.01908
C         32.84235        27.32717        -0.48851
C         31.60610        26.62682        -0.20374
C         32.83515        28.78307        -0.55081
C         31.63468        29.50382        -0.48232
C         32.82377        31.66931        -0.36308
C         31.63772        30.94523        -0.38550
C         32.84232        33.11061        -0.22794
C         31.62833        33.83507        -0.05853
C         32.86631        35.96104        -0.16678
C         31.64367        35.25644        -0.00387
C         32.86708        37.38943        -0.17438
C         31.62781        38.09971        -0.12948
C         32.84174        40.23115        -0.22043
C         31.62631        39.50995        -0.20295
C         32.83706        41.67594        -0.18265
C         31.59396        42.39125        -0.09030
C         32.83396        44.53582        -0.00137
C         31.60257        43.82137         0.01445
C         32.83422        45.97246         0.05858
C         31.60637        46.68630         0.14370
C         32.84728        48.79615         0.16611
C         31.65395        48.10727         0.19485
C         35.39749        23.10350        -0.16627
C         35.32420        24.48151        -0.47794
C         34.10143        25.19709        -0.41860
C         35.29025        27.35848        -0.92376
C         34.04065        26.61911        -0.62591
C         35.31172        28.81421        -0.67491
C         34.09418        29.48079        -0.59640
C         35.34640        31.61029        -0.27664
C         34.08609        30.97202        -0.79700
C         35.35050        33.09824        -0.13916
C         34.07033        33.82627        -0.25318
C         35.34221        35.95137        -0.34005
C         34.09298        35.23660        -0.25508
C         35.33576        37.36850        -0.35364
C         34.09713        38.09670        -0.26011
C         35.31855        40.24460        -0.25090
C         34.08672        39.52342        -0.24225
C         35.31341        41.67601        -0.20082
C         34.06235        42.38834        -0.16065
C         35.29934        44.53707        -0.07528
C         34.06373        43.81864        -0.07866
C         35.30278        45.96526        -0.02646
C         34.07177        46.68869         0.03157
C         35.34634        48.82124         0.02549
C         34.09403        48.11614         0.08814
C         35.42085        50.27444         0.11213
C         37.85073        23.06511        -0.31446
C         36.59431        22.40792        -0.16416
C         37.85973        24.46096        -0.55497
C         36.58422        25.08750        -1.07917
C         37.84605        27.35352        -0.78298
C         36.59231        26.61815        -1.07581
C         37.82213        28.77311        -0.71135
C         36.58403        29.50281        -0.69600
C         37.82579        31.64028        -0.53219
C         36.61920        30.91015        -0.54283
C         37.82422        33.09092        -0.50134
C         36.61815        33.81165        -0.35570
C         37.80467        35.94110        -0.60164
C         36.58185        35.22992        -0.42688
C         37.77321        37.36647        -0.65035
C         36.57184        38.08503        -0.47038
C         37.76123        40.25356        -0.26155
C         36.55666        39.53304        -0.34792
C         37.78288        41.67894        -0.13660
C         36.53383        42.39837        -0.18166
C         37.76083        44.56409        -0.15120
C         36.53419        43.83373        -0.15663
C         37.76379        45.95014         0.01273
C         36.53655        46.67112         0.00067
C         37.81991        48.81091        -0.20533
C         36.55522        48.10592        -0.05138
C         37.78707        50.24828        -0.67467
C         36.56352        50.95120        -0.13115
C         40.31964        20.25455         0.13823
C         39.13192        20.93520         0.02128
C         40.31800        23.06460        -0.24143
C         39.09924        22.35172        -0.16674
C         40.31033        24.50346        -0.35237
C         39.06095        25.19522        -0.50776
C         40.27770        27.35404        -0.42934
C         39.05647        26.64001        -0.59837
C         40.28201        28.77992        -0.44144
C         39.05467        29.49749        -0.57635
C         40.30618        31.63156        -0.58290
C         39.06355        30.92461        -0.57692
C         40.32499        33.08364        -0.71751
C         39.05652        33.80687        -0.68715
C         40.27885        35.95686        -0.98926
C         39.02803        35.21218        -0.75020
C         40.31704        37.39486        -0.74367
C         39.03589        38.09156        -0.85383
C         40.30469        40.17520        -0.14822
C         39.02281        39.58152        -0.57805
C         40.27537        41.69553         0.07962
C         39.00460        42.37299        -0.10283
C         40.23174        44.51377         0.25606
C         39.05169        43.83094        -0.44642
C         40.26557        46.00674        -0.13889
C         39.01773        46.71488         0.40277
C         40.28720        48.85092        -0.03593
C         39.01592        48.15682        -0.03549
C         40.29585        50.26998        -0.16612
C         39.09074        50.98993        -0.43773
C         40.36702        53.06798        -0.51262
C         39.14787        52.36751        -0.60962
C         42.79918        20.25426         0.18140
C         41.56281        20.94422         0.06782
C         42.80374        23.04273        -0.19889
C         41.56611        22.35694        -0.12811
C         42.82467        24.50523        -0.55725
C         41.52141        25.22416        -0.31281
C         42.72136        27.36924        -0.04948
C         41.51627        26.64681        -0.27403
C         42.74724        28.77702        -0.06528
C         41.50929        29.49397        -0.30222
C         42.80830        31.59121        -0.46974
C         41.50186        30.90326        -0.42919
C         42.82804        33.07075        -0.66919
C         41.53733        33.76561        -0.77062
C         42.83310        35.97518        -0.63140
C         41.60531        35.21828        -0.97792
C         42.81798        37.37429        -0.58481
C         41.54145        38.09710        -0.69089
C         42.81088        40.26824        -0.69532
C         41.54477        39.49407        -0.48356
C         42.75807        41.71617        -0.28110
C         41.56620        42.41806        -0.07472
C         42.75911        44.53810         0.51644
C         41.53984        43.82034         0.02892
C         42.74476        46.03540         0.31909
C         41.54903        46.72219         0.21455
C         42.74719        48.87702         0.29598
C         41.51575        48.15692         0.15458
C         42.73539        50.28679         0.27229
C         41.53140        50.98023        -0.01143
C         42.82852        53.09146        -0.19577
C         41.54959        52.40046        -0.21319
C         43.99418        20.93570         0.11636
C         45.27516        23.08671        -0.08122
C         44.02343        22.34774        -0.07771
C         45.23697        24.52066         0.08914
C         44.02910        25.20646        -0.00263
C         45.22349        27.37918         0.32584
C         43.92664        26.62782         0.45812
C         45.20790        28.80563         0.31608
C         43.98026        29.48021         0.15920
C         45.24674        31.69171         0.11139
C         43.93459        30.97530         0.32526
C         45.24870        33.10116        -0.04191
C         44.04287        33.83245        -0.30525
C         45.25255        35.96187        -0.08461
C         44.03618        35.23639        -0.33696
C         45.23960        37.37794        -0.00646
C         44.01740        38.11231        -0.23663
C         45.18196        40.26991         0.17902
C         44.02787        39.52994        -0.17829
C         45.23644        41.68004         0.07861
C         44.04704        42.46836        -0.45046
C         45.21698        44.57052         0.18069
C         44.02897        43.87957         0.08575
C         45.23602        46.01600         0.33301
C         43.99736        46.74301         0.36703
C         45.24546        48.86916         0.38823
C         43.99464        48.15547         0.38043
C         45.26045        50.28816         0.46340
C         43.97024        51.05520         0.68917
C         43.97229        52.46310         0.14210
C         47.71155        23.15417        -0.01509
C         46.52616        22.44290        -0.12879
C         47.72221        24.55559         0.23608
C         46.46832        25.24442         0.34190
C         47.64711        27.41139         0.78330
C         46.42364        26.66366         0.44561
C         47.67889        28.87288         0.59451
C         46.45781        29.55005         0.39935
C         47.70419        31.69043         0.31938
C         46.45976        30.98186         0.27440
C         47.70566        33.11526         0.24915
C         46.48359        33.82111         0.07697
C         47.69358        35.96387         0.28675
C         46.47668        35.24811         0.07584
C         47.65150        37.37757         0.46190
C         46.44588        38.06459         0.32102
C         47.66651        40.25165         0.19238
C         46.40312        39.52739         0.69257
C         47.68892        41.70836         0.70175
C         46.43122        42.42135         0.26620
C         47.70285        44.55399         0.17271
C         46.46268        43.82750         0.16249
C         47.70653        45.97392         0.18420
C         46.46474        46.70644         0.28263
C         47.71564        48.84719         0.26690
C         46.47517        48.14287         0.31233
C         47.69243        50.24861         0.35115
C         46.48965        50.94936         0.46723
C         50.16130        24.77571        -0.30317
C         48.95527        25.27116         0.28840
C         50.21517        27.44090         0.68374
C         48.97740        26.65370         0.77491
C         50.18731        28.83504         0.66788
C         48.92525        29.56251         0.60237
C         50.17328        31.70641         0.48865
C         48.93433        30.97914         0.47021
C         50.17680        33.11956         0.43683
C         48.93890        33.84183         0.34749
C         50.17585        35.99183         0.48694
C         48.93083        35.25487         0.36967
C         50.17391        37.36385         0.69213
C         48.88593        38.08858         0.98280
C         50.11670        40.23591         0.46677
C         48.95545        39.53801         0.54339
C         50.10750        41.66898         0.15964
C         48.94317        42.40547         0.24076
C         50.16505        44.53095        -0.01816
C         48.94026        43.83545         0.10720
C         50.18274        45.96067        -0.00392
C         48.94995        46.68265         0.10952
C         50.20664        48.76898         0.04738
C         48.96619        48.10859         0.14380
C         51.35224        25.42567        -0.15896
C         52.71907        27.42748         0.45401
C         51.48152        26.62964         0.74894
C         52.68395        28.85299         0.48352
C         51.42450        29.57328         0.62697
C         52.64431        31.72349         0.57631
C         51.41794        30.98876         0.57617
C         52.65954        33.12043         0.49754
C         51.41590        33.84804         0.46057
C         52.66861        35.97734         0.43747
C         51.42224        35.25512         0.48026
C         52.67690        37.37566         0.49854
C         51.45189        38.07830         1.04538
C         52.42665        40.07505        -0.40054
C         51.49591        39.66032         0.79718
C         52.49136        41.59053        -0.38750
C         51.36566        42.33388        -0.11876
C         52.61390        44.47618        -0.12402
C         51.39999        43.79734        -0.09942
C         52.67426        45.91030        -0.14211
C         51.42590        46.65872        -0.08103
C         51.40142        48.06694        -0.06227
C         55.14133        27.41968         0.16001
C         53.97045        26.74999         0.38116
C         55.13640        28.89557        -0.10535
C         53.88544        29.56216         0.39018
C         55.18145        31.72193         0.50831
C         53.92074        30.98234         0.86967
C         55.16174        33.10872         0.37281
C         53.91032        33.84151         0.41254
C         55.13883        35.97038         0.13022
C         53.90738        35.24209         0.31354
C         55.10636        37.35971        -0.05814
C         53.85995        38.09187         0.07330
C         54.89617        40.04319        -1.16811
C         53.78029        39.41879        -0.34376
C         55.00050        41.57467        -0.99343
C         53.76320        42.31594        -0.62525
C         55.13568        44.40702        -0.37395
C         53.88379        43.67285         0.03539
C         55.12756        45.78582        -0.39404
C         53.92697        46.53018        -0.24139
C         56.38718        29.60024         0.33936
C         56.39737        30.94006         0.53365
C         56.37343        33.85959         0.16098
C         56.36291        35.21631         0.04794
C         56.28616        38.09933        -0.45467
C         56.21103        39.34732        -0.96117
C         56.29512        42.27738        -0.77667
C         56.33164        43.61903        -0.56084
O         35.88081        27.10497        -2.27332
O         40.97899        35.61499        -2.24949
O         29.42869        31.33684        -1.42770
O         40.28018        40.74372         1.20257
O         35.31276        32.19155         1.05563
O         51.95074        40.26317         1.94888
O         43.12889        32.11237        -1.78633
O         48.24048        26.91558         2.02844
O         54.19984        42.27803        -2.03416
O         39.03787        39.08328        -1.95537
O         39.03189        46.77784         1.84972
H         39.15851        45.85090         2.17648
O         47.54712        40.27317        -1.25130
H         48.37216        40.65485        -1.61955
O         54.02748        43.39707         1.46648
H         53.93143        44.24452         1.94895
O         47.73974        41.76332         2.14718
H         47.05093        41.13673         2.48781
O         43.69436        26.53941         1.93530
H         44.51292        26.16652         2.32992
O         51.49084        37.95022         2.50076
H         51.82009        38.86435         2.79771
O         51.62447        26.13189         2.12936
H         50.72329        25.95805         2.47641
O         40.17441        46.15152        -1.57525
H         40.83462        45.56080        -1.99493
O         30.16763        40.21817        -1.92897
H         30.93839        40.69341        -2.30669
O         29.93389        28.77270        -1.98737
H         29.83084        29.72969        -2.23169
O         46.34798        39.55378         2.15019
H         47.10417        39.00119         2.48339
O         29.50236        35.18041         2.20966
H         29.53088        36.10690         2.53178
O         34.15761        31.17565        -2.25459
H         33.42886        30.66354        -2.66550
O         43.87144        51.19997         2.15444
H         43.02295        51.65437         2.34348
O         43.55960        31.21597         1.72915
H         44.20611        30.74484         2.29668
O         42.98551        24.54566        -2.03522
H         42.24603        24.02928        -2.42195
O         29.60586        29.34325         1.62887
H         28.87099        29.67096         2.19030
O         42.97860        40.28881        -2.18398
H         43.05794        39.35576        -2.48171
O         39.98080        44.36810         1.68857
H         40.86270        44.34574         2.14116
O         39.27598        43.86557        -1.88983
H         38.48182        43.48793        -2.32295
O         37.61833        50.21640        -2.13508
H         36.82268        49.67477        -2.32305
O         51.78382        39.60396        -1.62024
H         52.49298        39.53014        -2.30344
O         42.71654        44.36266         2.01480
H         43.47802        44.86188         2.38444
O         44.28079        42.63189        -1.89529
H         44.01474        41.78014        -2.32447
O         36.55554        24.66650        -2.48151
H         36.07255        25.37745        -2.96816
O         55.10884        29.03578        -1.59049
H         54.33447        28.52684        -1.91358
O         48.73979        38.11027         2.45303
H         49.66731        38.15601         2.81532
O         53.96217        30.87178         2.35488
H         53.88120        31.78245         2.71191
O         54.48332        39.80658        -2.55954
H         54.24139        40.69531        -2.92470
O         27.36489        28.87982        -1.28806
H         28.10693        28.56741        -1.86414
H         27.08090        26.74421         0.70708
H         25.98202        28.93265         1.37322
H         26.08959        31.35350         1.67684
H         25.83138        33.28531         1.03479
H         25.78458        35.70432         0.91135
H         25.76971        37.61183         0.81235
H         25.75162        40.02704         0.62411
H         25.71721        41.88647         0.22361
H         25.73270        44.33733         0.29308
H         26.96305        46.47601         0.36470
H         29.19041        25.59159         0.47950
H         29.07537        47.72929         0.32377
H         32.86573        23.44954         0.08414
H         30.78317        24.63916         0.25248
H         32.82260        49.89352         0.20163
H         30.72154        48.68399         0.25571
H         34.48874        22.54915         0.10452
H         34.52614        50.83201         0.42501
H         36.56391        21.33391         0.06057
H         36.57181        52.04745        -0.03994
H         40.32104        19.16473         0.28386
H         38.19307        20.36856         0.07100
H         40.38480        54.15290        -0.69108
H         38.23827        52.92935        -0.86364
H         42.79099        19.16497         0.33071
H         42.84572        54.14770        -0.50579
H         44.93458        20.37889         0.22603
H         44.91403        53.03025         0.13963
H         48.66528        22.61237        -0.07637
H         46.57875        21.35535        -0.27579
H         48.62817        50.82281         0.34554
H         46.53318        52.04206         0.56792
H         50.12088        23.85789        -0.90836
H         50.25099        49.86600         0.06003
H         52.24520        25.04004        -0.67290
H         52.33845        48.63653        -0.12554
H         56.09307        26.87417         0.08079
H         53.98640        25.66078         0.53163
H         56.06367        46.33240        -0.58479
H         53.99903        47.62565        -0.26878
H         57.32200        29.02234         0.38415
H         57.35594        31.44426         0.73015
H         57.33014        33.32465         0.09438
H         57.31583        35.74053        -0.10131
H         57.27024        37.61480        -0.39071
H         57.12638        39.82948        -1.33169
H         57.23756        41.72873        -0.90760
H         57.30342        44.13668        -0.53420
