         349
 CSIRO Nanostructure Databank - Neutral Graphene Oxide Data Set
C          1.27810         1.92265         0.93603
C          1.24896         3.31900         1.01583
C          2.47811         1.23617         0.79836
C          2.44735         4.06978         1.01285
C          1.24768         6.26647         1.15613
C          1.24454         7.65929         1.20737
C          2.44396         5.53422         1.08809
C          2.44307         8.40321         1.22238
C          1.20260        10.61629         0.78453
C          1.25131        11.92895         0.48562
C          2.41230         9.92600         1.38643
C          2.46641        12.73621         0.66986
C          1.21225        14.87720         0.25764
C          1.19975        16.21608        -0.07711
C          2.43335        14.18705         0.49715
C          2.41032        16.93813        -0.22790
C          2.41267        18.31363        -0.62530
C          3.70929         1.94465         0.76053
C          3.67253         3.36340         0.93595
C          4.91963         1.25956         0.44516
C          4.93393         4.10571         0.99420
C          3.68216         6.27116         1.09351
C          3.66395         7.70973         1.20078
C          4.90266         5.57105         1.00721
C          4.94023         8.46242         1.38254
C          3.66125        10.56267         0.72289
C          3.65528        12.07025         0.85992
C          4.94630         9.94599         1.21724
C          4.92813        12.78126         1.08008
C          3.64142        14.91529         0.43965
C          3.64459        16.27938         0.03386
C          4.91487        14.28867         0.83661
C          4.87894        16.99568        -0.12100
C          3.58884        18.99594        -0.78134
C          4.85291        18.35575        -0.54933
C          6.13387         1.94166         0.17836
C          6.20344         3.37143         0.57237
C          7.24868         1.33075        -0.38296
C          7.29374         4.19446        -0.03407
C          6.20076         6.27302         1.02747
C          6.24696         7.75726         1.20774
C          7.30496         5.65755         0.23480
C          7.42396         8.52147         0.71261
C          6.22287        10.66832         0.95444
C          6.22152        12.06145         0.93847
C          7.42592         9.91369         0.75541
C          7.44738        12.82538         0.79404
C          6.19515        14.96721         0.53646
C          6.13987        16.35582         0.11327
C          7.39379        14.27732         0.68277
C          7.31958        17.06857        -0.14578
C          6.05868        19.06648        -0.73735
C          7.30278        18.44078        -0.55032
C          8.44474         2.06744        -0.92941
C          8.53364         3.51323        -0.47889
C          9.76226         1.38413        -0.65410
C          9.69209         4.20272        -0.61024
C          8.55812         6.42079         0.07979
C          8.59282         7.78275         0.27851
C          9.78115         5.62745        -0.20117
C          9.70338         8.59637        -0.35590
C          8.73383        10.65914         0.86922
C          8.66908        12.14866         0.64558
C          9.90542         9.98232         0.21330
C          9.90939        12.82692         0.39052
C          8.66724        15.03340         0.64636
C          8.62104        16.45815         0.17347
C         10.00008        14.29607         0.71705
C          9.81009        17.04475        -0.55104
C          8.53561        19.17543        -0.64438
C          9.78342        18.55596        -0.53958
C         10.94989         2.07258        -0.78940
C         10.87783         3.51529        -1.28315
C         12.21370         1.45166        -0.56830
C         12.19330         4.26647        -1.16383
C         11.05684         6.35194        -0.44274
C         11.01260         7.84294        -0.60427
C         12.24984         5.60227        -0.93202
C         12.31382         8.55972        -0.56336
C         11.06385        10.68768         0.00792
C         11.07778        12.13265         0.10566
C         12.38696         9.95748         0.00094
C         12.25944        12.85334        -0.52076
C         11.16344        15.02093         0.07421
C         11.12712        16.42952        -0.14745
C         12.37099        14.31734        -0.15410
C         12.29895        17.16583        -0.25485
C         11.00159        19.25637        -0.57874
C         12.25920        18.59628        -0.49484
C         13.44608         2.08300        -0.83666
C         13.43948         3.47039        -1.36240
C         14.67587         1.43343        -0.65652
C         14.77167         4.20038        -1.47149
C         13.55537         6.31153        -0.79895
C         13.59308         7.78278        -0.52672
C         14.74439         5.72914        -1.55037
C         14.81804         8.56063        -0.83090
C         13.59156        10.72174        -0.49638
C         13.58029        12.11376        -0.48548
C         14.79868         9.98412        -0.74230
C         14.78915        12.84581        -0.70634
C         13.58114        15.00662        -0.32323
C         13.61092        16.47975         0.05141
C         14.79866        14.30882        -0.65136
C         14.74574        17.22318        -0.59375
C         13.45940        19.31952        -0.59545
C         14.72110        18.64761        -0.66506
C         15.93740         2.11252        -0.73443
C         15.97198         3.49995        -1.02188
C         17.15352         1.43039        -0.43023
C         17.20599         4.26691        -0.66048
C         16.03214         6.41938        -1.15677
C         16.02330         7.85356        -1.06547
C         17.23242         5.71093        -1.11093
C         17.26228         8.56750        -1.08641
C         16.01286        10.71250        -0.92494
C         15.98681        12.13244        -0.90224
C         17.25771         9.99603        -1.05561
C         17.23677        12.86099        -1.20659
C         15.97301        15.02954        -0.89811
C         15.91782        16.49095        -0.98951
C         17.23998        14.36221        -1.27185
C         17.28291        17.30076        -0.94374
C         15.93368        19.37494        -0.67436
C         17.19444        18.71903        -0.54301
C         18.42160         2.07424        -0.56066
C         18.45639         3.45982        -0.85869
C         19.65316         1.36718        -0.43263
C         19.71809         4.11203        -1.17457
C         18.46659         6.40675        -1.14170
C         18.48917         7.83179        -1.13111
C         19.71208         5.65326        -1.35891
C         19.72606         8.53471        -1.01776
C         18.48931        10.70243        -1.03266
C         18.51042        12.14071        -0.99170
C         19.71373         9.96083        -0.91340
C         19.67349        12.85282        -0.74942
C         18.59017        15.12978        -1.23284
C         18.49339        16.52303        -0.62377
C         19.71967        14.30280        -0.61985
C         19.53258        17.12531         0.01779
C         18.32635        19.34776        -0.06492
C         19.53177        18.59443         0.41897
C         20.91080         2.02509        -0.47834
C         20.97760         3.42811        -0.81308
C         22.11454         1.33794        -0.19987
C         22.19475         4.11255        -0.72309
C         21.01965         6.37294        -1.23391
C         20.97158         7.82247        -0.89709
C         22.27250         5.57480        -0.95181
C         22.11000         8.46157        -0.45526
C         20.89873        10.64823        -0.60331
C         20.93414        12.10575        -0.64377
C         22.05524         9.89606        -0.15157
C         22.17745        12.83423        -0.23729
C         20.82221        14.93647        -0.10121
C         20.77321        16.36764         0.28353
C         22.05901        14.20219         0.38105
C         22.07964        17.09606         0.52939
C         20.86156        19.23221         0.04706
C         22.07955        18.62291         0.69171
C         23.36101         2.01140        -0.14835
C         23.39471         3.43549        -0.34908
C         24.56949         1.33583         0.13759
C         24.62482         4.14432        -0.15184
C         23.44059         6.26473        -0.36674
C         23.32501         7.70800         0.03376
C         24.58790         5.59503        -0.05055
C         24.61176         8.45164        -0.32246
C         23.34649        10.64708         0.21246
C         23.39286        12.09592         0.12260
C         24.61727         9.91563        -0.08969
C         24.58725        12.82820         0.16027
C         23.35327        14.98297         0.13663
C         23.32645        16.36933         0.15984
C         24.57749        14.23286         0.03506
C         24.56274        17.14601        -0.06382
C         23.38757        19.28456         0.33462
C         24.58235        18.60682         0.23748
C         25.81742         2.01250         0.17889
C         25.83471         3.45851         0.05450
C         27.00068         1.29344         0.43468
C         27.07217         4.20612         0.23668
C         25.79513         6.37389         0.47027
C         25.91220         7.66088        -0.39150
C         27.08374         5.56915         0.42360
C         27.13601         8.50505        -0.10189
C         25.88283        10.61062         0.26694
C         25.86493        12.10085         0.38445
C         27.15809         9.88091         0.06916
C         27.15054        12.82148         0.29417
C         25.87959        14.88025        -0.38643
C         25.86205        16.40668        -0.21895
C         27.13103        14.17748         0.12376
C         27.05686        17.10993         0.35130
C         25.84938        19.27853         0.21113
C         27.07905        18.59315         0.27133
C         28.31151         1.89530         0.25466
C         28.35297         3.46605         0.15930
C         29.54068         1.24493         0.71661
C         29.59922         4.10032         0.56286
C         28.34955         6.32981         0.62828
C         28.38798         7.77624         0.20392
C         29.67223         5.58556         0.86072
C         29.67336         8.44979        -0.17128
C         28.37190        10.62855         0.23017
C         28.38814        12.03830         0.37337
C         29.67636         9.99514        -0.19788
C         29.63738        12.70997         0.48792
C         28.40166        14.92951         0.16039
C         28.33249        16.36365         0.57692
C         29.67326        14.18854         0.42115
C         29.60874        17.10834         0.62177
C         28.32630        19.23119         0.33405
C         29.56924        18.52457         0.47344
C         30.71110         1.93536         0.82464
C         30.76206         3.37554         0.73050
C         32.01531         4.10785         0.95554
C         30.90633         6.11132         0.04510
C         30.95371         7.66232        -0.09512
C         32.11425         5.42187         0.66713
C         32.15056         8.46340         0.24892
C         30.90823        10.61145         0.43489
C         30.87467        12.00777         0.63343
C         32.09286         9.80665         0.51831
C         32.07700        12.80412         0.87572
C         30.77949        14.92684         1.15744
C         30.82655        16.41146         0.78440
C         32.06921        14.14500         1.04570
C         32.02021        17.14826         0.78006
C         30.80077        19.22800         0.47516
C         31.99970        18.54170         0.61097
O         29.36291        14.70018        -0.92308
O         24.53734         9.36776        -1.46105
O         25.24677        17.00168        -1.39449
O          6.78507         5.13487        -1.06151
O         30.31106         7.98061        -1.40082
O         19.67370         4.76768        -2.50548
O         28.45290         2.61983        -1.01523
O          4.90389         9.36741         2.56339
O         25.79797        11.23685         1.58678
O         10.74749         5.88666         0.91449
O         11.63448         8.34890        -1.83930
O         16.63335        17.00002        -2.17288
O          8.73263        16.17142         1.60105
O         13.78537         6.80519         0.55637
O         28.27633         7.40725         1.63887
O         14.11695         3.59252        -2.65426
O          4.88712        13.72544         2.19862
O         22.47212        10.17879         1.29063
O         21.90956        12.68493        -1.66410
O         27.40066        16.59384         1.69088
O         21.95193         6.05001        -2.31240
O         17.14681        13.56833        -2.51526
O          5.95048         3.58831         1.97655
O          6.59775         6.84550         2.31386
O         21.33815        16.50762         1.66140
O          9.60104        16.64295        -1.94553
H         10.32410        17.03235        -2.48106
O         10.37627        14.27786         2.14041
H         10.00964        15.10612         2.53211
O          2.38359        10.21705         2.79612
H          3.22430         9.86921         3.18243
O         26.06480         7.19911        -1.75467
H         25.77738         7.93256        -2.34448
O         29.99083         5.70143         2.26619
H         29.50658         6.48680         2.61498
O         21.93248        13.93880         1.80116
H         21.74563        14.80551         2.23724
O         25.95196        14.61830        -1.82282
H         25.48783        15.36512        -2.27206
O         23.19781         7.65615         1.48398
H         22.97883         8.57047         1.80225
O         19.37427        18.68379         1.87802
H         20.27900        18.84299         2.25961
O         29.76881        10.39468        -1.60501
H         30.32845         9.71798        -2.05489
O          8.25907         2.09677        -2.40358
H          7.48706         2.67387        -2.59018
O         11.90628        12.86569        -1.95581
H         12.66674        13.24810        -2.44417
O         17.15954         4.42703         0.83280
H         17.03392         3.52960         1.21315
O         10.59989         3.48786        -2.70638
H          9.79911         2.91621        -2.84296
O          3.62265        10.24860        -0.69774
H          2.80624        10.64742        -1.06894
O          9.04536        10.54736         2.31978
H          8.31976        10.98775         2.81346
O          9.13811         8.89262        -1.67699
H          9.90352         9.06476        -2.27657
O         13.83541        16.54377         1.51539
H         13.06340        16.11775         1.94600
O         14.54219         6.10275        -2.93850
H         14.20987         5.29863        -3.40744
O         25.59056         6.79708         1.82957
H         25.21388         6.05467         2.34352
O         22.01708        18.89888         2.16776
H         22.21485        18.05652         2.63426
O         18.99419        15.35572        -2.60378
H         18.57310        14.64628        -3.14563
O         30.38993        14.88520         2.56436
H         31.04825        15.39523         3.08057
O         30.81826         5.55616        -1.28112
H         30.42677         6.23639        -1.87668
O         12.66791         9.73086         1.42158
H         12.48863        10.56093         1.91189
H          0.33171         1.36436         0.95867
H          0.27652         3.82196         1.09372
H          2.48318         0.14216         0.69367
H          0.28107         5.74575         1.16897
H          0.27843         8.17847         1.26452
H          0.25449        10.07144         0.66792
H          0.34701        12.42046         0.09951
H          0.25598        14.34597         0.35067
H          0.24377        16.73133        -0.24877
H          1.45033        18.81181        -0.81209
H          4.86703         0.17910         0.24457
H          3.58344        20.04926        -1.09712
H          7.18865         0.25715        -0.62143
H          6.01945        20.12621        -1.02998
H          9.76440         0.33146        -0.33340
H          8.48355        20.26711        -0.77667
H         12.22480         0.40808        -0.21630
H         10.98667        20.35318        -0.67331
H         14.67479         0.38188        -0.33183
H         13.42979        20.41427        -0.69059
H         17.11994         0.35640        -0.19952
H         15.89235        20.46678        -0.54421
H         19.62699         0.28909        -0.21626
H         18.27441        20.41807         0.19005
H         22.07970         0.25886         0.01141
H         20.85441        20.33773         0.04639
H         24.55250         0.24593         0.28626
H         23.40921        20.38084         0.43896
H         26.93500         0.23979         0.74598
H         25.85390        20.37886         0.24302
H         29.49801         0.17676         0.97656
H         28.36376        20.32965         0.27365
H         31.62936         1.40498         1.11786
H         32.88608         3.54848         1.33015
H         33.07172         5.95054         0.78060
H         33.11518         7.94703         0.35382
H         33.02857        10.29688         0.82760
H         33.04574        12.28262         0.87918
H         33.02561        14.66117         1.22065
H         32.98752        16.64444         0.91368
H         30.79860        20.32158         0.36325
H         32.94904        19.09526         0.60563
