         429
 CSIRO Nanostructure Databank - Neutral Graphene Oxide Data Set
C          0.99613         3.99011         1.81084
C         -0.14945         4.51161         1.22515
C          1.10028         6.43485         0.38001
C         -0.10048         5.71240         0.50491
C          1.12635         7.73209        -0.47158
C         -0.17562         8.50914        -0.49682
C          0.69397        10.55616         0.64234
C         -0.34298         9.79065        -0.14010
C          1.01772        12.05525         0.16654
C         -0.13781        12.75692        -0.44452
C          1.09564        14.85052        -0.86216
C         -0.11114        14.07991        -0.78623
C          1.09208        16.22439        -1.18444
C         -0.08504        17.00641        -1.26023
C          1.12454        19.12730        -1.67645
C         -0.05227        18.38937        -1.45950
C          1.17298        20.55412        -1.43161
C         -0.01258        21.28012        -1.15089
C          1.24807        23.30536        -0.65386
C          0.02244        22.61829        -0.81459
C          1.26897        24.73737        -0.35733
C          0.06461        25.47125        -0.27103
C          1.27820        27.56613         0.02973
C          0.07401        26.84038        -0.07146
C          1.26213        29.00646         0.23472
C          0.03899        29.71860         0.25384
C          1.19721        31.80096         0.73136
C          0.00544        31.07054         0.52858
C          1.14337        33.23680         0.93982
C         -0.02120        33.95149         1.19348
C          1.15114        36.07749         1.58517
C         -0.01842        35.33234         1.52017
C          1.20533        37.43876         2.05223
C          3.42373         4.08719         2.24391
C          2.23841         4.66461         1.68061
C          3.57742         6.66255         1.03619
C          2.27128         5.90181         0.95770
C          3.63615         7.87197         0.06340
C          2.27064         8.58224         0.07466
C          3.84615        10.93279         0.77872
C          1.94848         9.72560         0.72330
C          3.70958        12.19191         0.22035
C          2.35299        12.81869         0.07234
C          3.63347        14.89247        -0.69734
C          2.37541        14.03930        -0.87821
C          3.63353        16.31163        -1.15958
C          2.34311        16.90004        -1.61837
C          3.69170        19.11427        -2.20741
C          2.35774        18.37958        -1.97623
C          3.66970        20.60513        -1.81656
C          2.41123        21.25104        -1.35101
C          3.73692        23.23402        -0.54609
C          2.44841        22.58828        -0.89517
C          3.75879        24.72208        -0.17679
C          2.48488        25.45020        -0.23263
C          3.77310        27.54606         0.09592
C          2.51098        26.85746        -0.05855
C          3.73759        28.94237         0.55656
C          2.46871        29.70919         0.45760
C          3.69525        31.85016         0.80042
C          2.44550        31.11165         0.65965
C          3.67232        33.22889         0.91298
C          2.40747        33.97195         0.82344
C          3.68152        36.14590         1.43954
C          2.40535        35.46824         1.13393
C          3.65734        37.52924         1.80218
C          2.37834        38.13959         2.10558
C          5.93151         3.89853         2.25874
C          4.72272         4.57085         1.92731
C          6.03879         6.01685         0.54086
C          4.78959         5.71748         1.06288
C          6.10551         8.08736         0.06710
C          4.89509         8.69819         0.35757
C          6.18558        10.77962         0.26119
C          4.98592        10.12010         0.56971
C          6.16712        12.12477        -0.13932
C          4.91934        12.82229        -0.23876
C          6.13880        14.82751        -0.94574
C          4.93262        14.17733        -0.65655
C          6.15765        16.18812        -1.61149
C          4.90518        17.01861        -1.45427
C          6.19892        19.08980        -1.68026
C          4.92882        18.37200        -1.68516
C          6.23564        20.48437        -1.55353
C          4.98416        21.28637        -1.56413
C          6.19049        23.33106        -0.79834
C          5.01464        22.62828        -0.92865
C          6.20923        24.76158        -0.53840
C          5.02117        25.47016        -0.31290
C          6.26842        27.64668        -0.15546
C          5.00650        26.90069        -0.12094
C          6.32438        28.97876         0.28503
C          5.07426        29.68741         0.69479
C          6.12014        31.94531         0.48106
C          4.98444        31.17521         0.68105
C          6.15000        33.36731         0.67794
C          4.92726        33.96100         1.31063
C          6.11236        36.17881         1.31143
C          4.88548        35.46658         1.27516
C          6.10039        37.58335         1.61061
C          4.86397        38.22320         1.90818
C          8.44213         3.82712         2.30064
C          7.20658         4.42899         1.91891
C          8.49757         6.38827         1.00683
C          7.27909         5.61335         1.11524
C          8.52718         7.82614         0.65970
C          7.38142         8.58707         0.42650
C          8.60307        10.53221        -0.35871
C          7.47889        10.08697         0.54069
C          8.64363        12.02976        -0.50808
C          7.40064        12.75705        -0.52774
C          8.61598        14.78794        -1.27819
C          7.36102        14.11284        -0.89430
C          8.67100        16.25917        -0.94479
C          7.41921        16.97705        -1.37139
C          8.71267        19.05588        -1.49317
C          7.43930        18.34559        -1.52378
C          8.69065        20.48458        -1.42752
C          7.46348        21.16630        -1.33952
C          8.65627        23.35864        -1.39581
C          7.50009        22.58451        -0.80821
C          8.64030        24.85348        -1.30449
C          7.41399        25.52785        -0.78031
C          8.53699        27.55252        -1.49433
C          7.42307        26.90807        -0.68380
C          8.95060        29.26388         0.15831
C          7.57277        29.79794         0.42358
C          8.52040        32.10685        -0.21430
C          7.43262        31.28177         0.38111
C          8.56702        33.52240         0.18594
C          7.33256        34.11653         0.62698
C          8.54762        36.24578         0.94662
C          7.34157        35.52004         0.98586
C          8.54196        37.64232         1.31135
C          7.32494        38.28213         1.64131
C         10.93537         3.77836         2.46739
C          9.65161         4.45203         2.02042
C         10.93716         6.54776         1.65518
C          9.67803         5.77038         1.47482
C         10.96255         8.01653         1.37445
C          9.77032         8.60891         0.72796
C         11.09554        10.61541         0.07442
C          9.85512         9.88345         0.18941
C         11.10334        11.94973        -0.45766
C          9.87050        12.62988        -0.75613
C         11.18361        14.77673        -1.13737
C          9.91117        14.02700        -1.21860
C         11.14707        16.20520        -1.37780
C          9.96037        16.92022        -1.36572
C         11.19245        19.07485        -1.51754
C          9.93705        18.35638        -1.50357
C         11.17621        20.50687        -1.44110
C          9.94358        21.21294        -1.39858
C         11.15142        23.34631        -1.33772
C          9.94405        22.62564        -1.39143
C         11.12451        24.77878        -1.11694
C          9.94459        25.56549        -1.17177
C         11.07382        27.82889        -1.22352
C          9.92745        26.98652        -1.25384
C         10.97855        29.32294        -1.48099
C          9.89656        29.94706        -0.56764
C         10.98785        32.20809        -0.62095
C          9.74275        31.42424        -0.74068
C         10.98649        33.54387        -0.25771
C          9.75499        34.23660         0.09805
C         10.96584        36.36673         0.47615
C          9.78051        35.63332         0.50865
C         10.98096        37.74033         0.93722
C          9.75928        38.34989         1.32789
C         13.38679         3.69338         1.90101
C         12.20627         4.43691         1.97209
C         13.44642         6.48435         1.35910
C         12.22330         5.81688         1.68849
C         13.49591         7.87840         1.06572
C         12.29859         8.76775         1.33215
C         13.53434        10.62717         0.18514
C         12.29456         9.99667         0.45651
C         13.54003        11.95208        -0.32005
C         12.33832        12.65525        -0.57982
C         13.65013        14.83453        -0.73300
C         12.35343        14.07750        -0.90714
C         13.68864        16.23161        -1.33015
C         12.42065        16.89505        -1.81240
C         13.65511        19.08389        -1.48799
C         12.41407        18.38364        -1.55588
C         13.64734        20.50931        -1.40077
C         12.40854        21.22329        -1.40294
C         13.64393        23.35425        -1.25971
C         12.39547        22.64583        -1.32199
C         13.62876        24.78182        -1.05727
C         12.37148        25.34880        -0.75738
C         13.64394        27.92984        -1.17969
C         12.34803        27.36468        -0.83255
C         13.63883        29.34671        -1.24072
C         12.32692        30.06966        -1.30253
C         13.45607        32.08702        -0.09569
C         12.28045        31.51256        -0.85904
C         13.44635        33.60565        -0.09785
C         12.25123        34.27409        -0.14155
C         13.49827        36.48153         0.14730
C         12.18190        35.78628        -0.23465
C         13.47337        37.87693         0.73549
C         12.17328        38.46797         1.04817
C         15.82479         3.56350         1.50049
C         14.62378         4.31014         1.56774
C         15.90121         6.36822         1.06780
C         14.65548         5.72035         1.31665
C         15.94743         7.77084         0.81649
C         14.72445         8.51782         0.75894
C         16.02385        10.55446         0.16421
C         14.76495         9.90454         0.38441
C         16.08292        11.89488        -0.29973
C         14.82853        12.55227        -0.70074
C         16.18090        14.68764        -1.17291
C         14.85557        13.98936        -1.09502
C         16.17057        16.16624        -1.38629
C         14.87883        16.91934        -1.39918
C         16.11672        19.10543        -1.33947
C         14.90350        18.37713        -1.48137
C         16.11942        20.51328        -1.25304
C         14.87893        21.22667        -1.31896
C         16.13800        23.40354        -1.40208
C         14.85395        22.64649        -1.27026
C         16.05901        24.87291        -1.04344
C         14.81902        25.58317        -1.05672
C         16.04852        27.53751        -1.71405
C         14.81333        27.03445        -1.23294
C         16.07141        29.75915        -1.58442
C         14.80210        30.20030        -1.13826
C         15.95163        32.19743        -0.27453
C         14.76317        31.50369        -0.55855
C         15.92820        33.57006         0.17848
C         14.70667        34.29427         0.14702
C         15.91205        36.32082         0.81072
C         14.71730        35.68085         0.38982
C         15.86135        37.67450         1.36605
C         14.67481        38.36172         1.42731
C         18.28079         3.44842         1.18433
C         17.06053         4.18921         1.24600
C         18.36086         6.26709         0.89130
C         17.10742         5.60924         1.06057
C         18.40832         7.68727         0.79804
C         17.20934         8.43197         0.68956
C         18.46751        10.55579         0.34895
C         17.24204         9.84533         0.41372
C         18.48826        11.93656         0.12016
C         17.30809        12.62954        -0.28174
C         18.58481        14.77923        -0.42824
C         17.37983        14.01761        -0.62855
C         18.62265        16.19582        -0.64169
C         17.46091        16.90279        -1.22230
C         18.61210        19.13306        -0.76540
C         17.42315        18.40104        -1.25549
C         18.59368        20.53892        -0.79207
C         17.36480        21.25221        -1.01515
C         18.54862        23.38387        -0.49328
C         17.33646        22.64146        -0.89736
C         18.53109        24.92218        -0.60477
C         17.27149        25.56779        -1.01696
C         18.56439        27.54575        -1.66064
C         17.29223        26.91035        -1.46564
C         18.56067        29.74573        -1.43657
C         17.27469        30.33138        -1.16420
C         18.42166        32.15848         0.01257
C         17.22408        31.56155        -0.43684
C         18.41018        33.50457         0.44709
C         17.15021        34.23387         0.47509
C         18.41900        36.35920         1.01903
C         17.12622        35.60094         0.82927
C         18.26054        37.54885         1.94150
C         17.05098        38.19474         2.00805
C         19.48839         4.08469         0.96691
C         20.82121         6.15980         0.62636
C         19.56151         5.49276         0.83205
C         20.91371         7.51619         0.60137
C         19.72422         8.35869         0.80553
C         20.95091        10.54443        -0.00548
C         19.76150         9.85755         0.57548
C         20.94329        11.87907        -0.14180
C         19.77405        12.66866         0.41993
C         20.92043        14.87802         0.27773
C         19.76187        14.12963         0.04174
C         20.93895        16.25707         0.10595
C         19.78103        16.95445        -0.32404
C         20.89417        19.17350         0.11236
C         19.77092        18.40758        -0.38269
C         20.96257        20.51921        -0.03426
C         19.92565        21.25589        -0.83927
C         20.99391        23.50390        -0.45339
C         19.85840        22.73528        -0.53776
C         20.97725        24.93048        -0.52744
C         19.81089        25.63947        -0.74806
C         20.91836        27.90542        -1.04511
C         19.77332        27.03937        -1.17241
C         20.89003        29.27204        -0.84071
C         19.72321        30.11033        -0.78750
C         20.90646        32.12239         0.26438
C         19.65772        31.29018         0.18195
C         20.86388        33.41648         0.66499
C         19.62306        34.14110         0.83706
C         20.67656        36.03532         2.03054
C         19.60918        35.48262         1.33971
C         20.59420        37.32526         2.62776
C         19.42327        38.04625         2.61897
O         16.06706        28.69696        -2.49615
O         12.37235        26.39314         0.18271
O          3.52906        15.96603         0.28999
O         13.74222        37.63404        -0.72935
O         12.47643        31.18882        -2.26597
O          8.70988        31.90925        -1.66641
O          2.85581        10.37396         1.57113
O          2.23338        17.32616        -2.99866
O          4.31838        21.40195        -2.88643
O          9.21428        14.31399        -2.50462
O         10.71558         7.53818         2.75517
O          1.55318        12.90515         1.26975
O          8.40182        24.14952        -2.58861
O          3.77042        23.68031         0.86100
O          7.69057        30.60146         1.67496
O         14.72626        13.00563        -2.14010
O          8.24318        28.35390        -2.36018
O          2.38907        34.98105        -0.25722
O         19.91646         9.33756         1.93450
O         16.31792        15.25231        -2.53678
O          6.12399         6.84891        -0.57626
O          4.40761        29.10725         1.86383
O         18.61112        28.73296        -2.41769
O         17.77526        17.63740        -2.47048
O         18.35480        24.24044         0.68737
O          3.60692         7.27382         2.36203
H          3.42731         6.57006         3.02141
O         16.38353        23.46927        -2.87593
H         16.36367        22.54904        -3.21856
O          6.17132        15.85613        -3.05291
H          6.13308        16.69789        -3.55682
O          7.84220        10.43925         1.90435
H          7.12015        10.14712         2.49881
O         13.80635        15.04813         0.71565
H         12.99917        15.49533         1.04797
O          2.48006        13.43918        -2.20516
H          2.39824        14.14905        -2.87738
O          3.89870        19.05389        -3.63969
H          4.31340        19.90914        -3.90872
O         13.25552        31.65274         1.28903
H         14.00197        31.99816         1.82268
O          8.34440        10.00358        -1.69034
H          8.98180        10.41593        -2.31055
O         10.97124         3.76038         3.91005
H         10.98204         4.68963         4.22080
O         18.73125        36.92825        -0.30356
H         17.97930        37.50568        -0.55693
O          3.81332         7.32631        -1.26696
H          4.14161         8.03549        -1.85741
O          9.24496        28.11839         0.85043
H          8.47902        27.86220         1.40329
O         10.54703        29.52994        -2.82534
H         10.72805        30.46776        -3.05953
O         12.53316         9.30896         2.67296
H         12.03617         8.72249         3.29346
O         20.35662        21.16896        -2.25118
H         20.37167        20.21744        -2.49231
O          8.65575        16.27827         0.53052
H          8.58612        17.21419         0.81597
O         12.43988        16.73489        -3.27826
H         13.32672        17.00755        -3.59771
O         19.50590        30.66008         1.51167
H         19.52835        31.37962         2.17791
O          0.15901        10.71858         1.97098
H          0.79434        11.28834         2.46008
O          5.06705        33.67056         2.76366
H          5.28041        32.71531         2.85066
O         11.94736        36.05515        -1.64672
H         12.39946        36.91064        -1.84297
O         19.93310        12.65476         1.87668
H         19.93835        11.71724         2.17089
O          7.85671        22.45442         0.61278
H          7.08925        22.06882         1.08612
O          1.29956         7.32566        -1.84408
H          2.21030         6.94790        -1.92104
H          0.95318         3.04346         2.36853
H         -1.10510         3.97751         1.32198
H         -1.02003         6.09959         0.04492
H         -1.01086         7.99922        -1.00260
H         -1.33655        10.24766        -0.26707
H         -1.09675        12.22355        -0.50297
H         -1.05848        14.55509        -1.08136
H         -1.05804        16.54475        -1.04418
H         -1.00632        18.92293        -1.35027
H         -0.99071        20.78974        -1.22985
H         -0.93139        23.13226        -0.64289
H         -0.90613        24.96752        -0.35449
H         -0.89182        27.35407         0.00780
H         -0.90968        29.20236         0.06286
H         -0.96404        31.58504         0.55015
H         -0.98667        33.42771         1.23164
H         -0.97146        35.80486         1.79973
H          0.26141        37.92791         2.33561
H          3.32301         3.16044         2.82908
H          2.37181        39.19175         2.42614
H          5.88276         2.96272         2.83504
H          4.86479        39.28176         2.20756
H          8.43877         2.86967         2.84174
H          7.33388        39.35107         1.90150
H         10.92107         2.70606         2.14217
H          9.76713        39.40526         1.63807
H         13.36755         2.61726         2.12707
H         12.14585        39.47700         1.48556
H         15.79345         2.47749         1.67269
H         14.61827        39.31610         1.97209
H         18.24717         2.35662         1.30978
H         16.96126        39.13151         2.57987
H         20.41677         3.49739         0.91447
H         21.72627         5.54415         0.51667
H         21.89459         8.00286         0.50772
H         21.81362         9.94632        -0.33490
H         21.80350        12.40673        -0.58074
H         21.82312        14.36902         0.64367
H         21.86825        16.79892         0.32179
H         21.70489        18.65889         0.64585
H         21.83275        21.06897         0.35187
H         21.97822        23.01353        -0.46470
H         21.94773        25.44368        -0.57178
H         21.89531        27.41856        -0.90168
H         21.84773        29.73180        -0.54853
H         21.88107        31.63516         0.11792
H         21.80767        33.96662         0.79312
H         21.58906        35.44553         2.19951
H         21.46985        37.71195         3.16793
H         19.34900        38.99461         3.17143
