         732
 CSIRO Nanostructure Databank - Neutral Graphene Oxide Data Set
C         22.85943        24.77287         0.83793
C         21.66463        25.46487         1.20415
C         22.98608        27.37781         2.13239
C         21.69105        26.69661         1.77886
C         22.99910        28.88013         1.90543
C         21.79998        29.56989         1.66930
C         23.00449        31.65561         1.35332
C         21.79769        30.92756         1.39289
C         22.99778        33.02776         0.86603
C         21.76091        33.77346         0.78782
C         22.83307        35.63220        -0.43124
C         21.69005        35.02421         0.26429
C         22.83313        37.09697        -0.80779
C         21.65281        37.91644        -0.44854
C         22.84367        40.07053        -0.74631
C         21.66562        39.26047        -0.37722
C         22.92124        41.51613        -0.40976
C         21.75708        42.21241        -0.04957
C         22.89118        44.35611        -0.14902
C         21.77261        43.61453         0.13809
C         22.87980        45.82910         0.02820
C         21.65798        46.60354        -0.21661
C         22.92855        48.68957        -0.19390
C         21.70168        47.97055        -0.25247
C         25.36870        23.39914         0.11527
C         25.35225        24.66871         0.68546
C         24.11019        25.36686         0.99314
C         25.40955        27.36673         1.58252
C         24.18641        26.71358         1.48887
C         25.44995        28.75486         2.01832
C         24.22949        29.57759         1.95554
C         25.42989        31.79738         1.55113
C         24.22920        30.99944         1.68773
C         25.43894        33.03072         0.83156
C         24.19036        33.65489         0.50081
C         25.42004        35.74755        -0.28157
C         24.18257        34.94120        -0.23143
C         25.43135        37.12370        -0.60322
C         24.16022        37.81856        -0.98348
C         25.39381        40.07661        -0.84785
C         24.14118        39.33089        -1.01837
C         25.39110        41.47917        -0.72246
C         24.15484        42.19926        -0.55642
C         25.40764        44.42884        -0.39782
C         24.12283        43.70229        -0.73233
C         25.44919        45.81046        -0.31057
C         24.19571        46.57232        -0.04915
C         25.41328        48.73253        -0.24503
C         24.16206        48.04164        -0.21135
C         25.50479        50.09862         0.07554
C         27.80275        23.19972         0.26570
C         26.58013        22.71042        -0.14114
C         27.87430        24.47365         1.07162
C         26.60755        25.30585         1.01344
C         27.96703        27.20987         1.86757
C         26.64185        26.62648         1.40954
C         27.96463        28.72234         1.94145
C         26.69196        29.25810         2.36508
C         27.90856        31.80904         1.54992
C         26.68281        31.37915         2.04470
C         27.90236        33.03997         0.84216
C         26.67217        33.66387         0.53925
C         27.88016        35.80916         0.26177
C         26.71666        34.97420        -0.22363
C         27.85620        37.29003        -0.02711
C         26.62156        37.88980        -0.57120
C         27.86504        40.09597        -0.67306
C         26.65818        39.30427        -1.12505
C         27.86529        41.57405        -0.89186
C         26.64060        42.22732        -0.74074
C         27.92105        44.41741        -0.61618
C         26.67630        43.64881        -0.23735
C         27.90302        45.83566        -0.62364
C         26.67933        46.53114        -0.44801
C         27.94059        48.70704        -0.43196
C         26.63902        48.01175        -0.75336
C         27.96015        50.08490        -0.08621
C         26.71904        50.76463         0.13510
C         30.24437        20.44248        -0.52834
C         29.04908        21.12431        -0.31585
C         30.28469        23.18931         0.08053
C         29.03986        22.48981         0.01823
C         30.31037        24.60227         0.33502
C         29.11813        25.28550         0.76087
C         30.30899        27.42885         0.95588
C         29.14717        26.62977         1.12965
C         30.31645        28.81526         1.27807
C         29.09210        29.49468         1.68203
C         30.38742        31.69151         1.31863
C         29.16479        31.03001         1.92870
C         30.37252        33.05864         0.99155
C         29.16951        33.74819         0.69029
C         30.40195        35.87076         0.33316
C         29.18065        35.12408         0.39967
C         30.37513        37.27921        -0.03515
C         29.16902        37.93155        -0.23138
C         30.40886        40.06361        -0.81152
C         29.14453        39.39065        -0.41948
C         30.37568        41.56415        -1.05047
C         29.10147        42.28524        -0.87241
C         30.37988        44.41893        -0.95136
C         29.12999        43.70548        -0.80447
C         30.34572        45.84899        -0.98266
C         29.14681        46.55652        -0.81585
C         30.37090        48.71932        -0.58806
C         29.14977        48.00327        -0.64173
C         30.40740        50.10376        -0.30746
C         29.20628        50.78223         0.01227
C         30.42374        52.88699         0.24695
C         29.30171        52.16451         0.45563
C         32.75843        18.94923        -0.77130
C         32.73378        20.34878        -0.58546
C         31.48579        21.09400        -0.45676
C         32.72968        23.23881        -0.23877
C         31.50479        22.50485        -0.19330
C         32.75162        24.63921        -0.06535
C         31.52070        25.31651         0.19376
C         32.82577        27.50794         0.37637
C         31.48063        26.78038         0.33088
C         32.82240        28.80271         1.10596
C         31.54345        29.55207         1.19549
C         32.89563        31.61871         0.81916
C         31.58968        30.95083         1.21807
C         32.89835        33.11887         0.96739
C         31.62557        33.86617         1.21909
C         32.86253        35.92505         0.47258
C         31.62040        35.23986         0.61042
C         32.84736        37.29089         0.03418
C         31.64807        37.98363        -0.17341
C         32.85366        40.13273        -0.61208
C         31.67532        39.38501        -0.51466
C         32.83852        41.55183        -0.80152
C         31.65454        42.29144        -0.94050
C         32.86295        44.46587        -1.05204
C         31.62411        43.72799        -1.00770
C         32.90013        45.85385        -1.04183
C         31.61925        46.57650        -1.16053
C         32.90777        48.67556        -0.40570
C         31.63517        48.06027        -0.94103
C         32.88145        50.18290        -0.50603
C         31.66308        50.83526        -0.40879
C         32.83381        53.08033        -0.49864
C         31.53280        52.32634        -0.61915
C         32.85387        54.43152        -0.61406
C         35.19730        18.93014        -0.68461
C         33.96016        18.26987        -0.87082
C         35.19247        20.32130        -0.43721
C         33.97157        21.02336        -0.46030
C         35.28492        23.23508        -0.48650
C         33.97039        22.50085        -0.53337
C         35.24111        24.66634        -0.17543
C         34.03581        25.35672        -0.03481
C         35.31802        27.45201         0.45802
C         34.07270        26.75287         0.28935
C         35.35598        28.83061         0.81958
C         34.13354        29.49493         1.31497
C         35.38107        31.70418         1.12700
C         34.10507        31.00106         1.55514
C         35.36077        33.11464         1.00993
C         34.09189        33.82146         0.93480
C         35.34440        35.95658         0.64389
C         34.09247        35.25238         0.71901
C         35.36966        37.32384         0.27039
C         34.13689        37.94667        -0.23089
C         35.38556        40.18751        -0.22622
C         34.15535        39.43667        -0.56007
C         35.37337        41.62168        -0.39849
C         34.14762        42.23270        -0.95201
C         35.39488        44.47567        -0.93396
C         34.13744        43.73573        -1.12922
C         35.37028        45.88775        -1.15833
C         34.14757        46.59067        -1.10150
C         35.33706        48.77347        -0.97555
C         34.16240        48.02954        -0.95177
C         35.33926        50.20644        -0.75635
C         34.12848        50.88442        -0.57048
C         35.27903        53.05353        -1.01653
C         34.14796        52.36368        -0.25846
C         35.29892        54.54333        -0.72744
C         34.09248        55.17422        -0.58575
C         37.64243        16.14113        -1.37135
C         36.47977        16.83156        -1.16440
C         37.67477        18.85989        -0.49119
C         36.46420        18.20985        -0.75992
C         37.73878        20.26221        -0.18407
C         36.44466        20.99883         0.08196
C         37.69842        23.13134         0.08635
C         36.54174        22.48520        -0.19466
C         37.69191        24.60636         0.42760
C         36.56584        25.36448        -0.27880
C         37.77323        27.47043         0.23115
C         36.54406        26.79154         0.18542
C         37.76675        28.87303         0.42663
C         36.56767        29.54879         0.75631
C         37.81262        31.71674         0.85929
C         36.57609        30.99439         0.93616
C         37.79680        33.12484         1.03575
C         36.58381        33.84228         1.00648
C         37.79441        36.02206         0.85110
C         36.58100        35.28630         0.88657
C         37.80186        37.40686         0.58321
C         36.57120        38.06757         0.28472
C         37.72991        40.24197         0.66471
C         36.54048        39.50239         0.10521
C         37.72960        41.76288         0.39062
C         36.51765        42.39774        -0.20283
C         37.86967        44.46132        -0.80691
C         36.56152        43.78118        -0.59690
C         37.92064        45.89131        -1.28514
C         36.62039        46.61470        -1.43269
C         37.90048        48.81808        -1.02226
C         36.62073        48.12750        -1.31211
C         37.86283        50.22993        -0.86103
C         36.60684        50.92864        -0.80129
C         37.79717        53.08354        -0.82318
C         36.59736        52.34128        -0.79588
C         37.75926        54.52521        -0.91562
C         36.56497        55.24773        -0.81352
C         37.75500        57.40238        -0.75499
C         36.60473        56.68360        -0.67288
C         40.13019        14.72879        -1.92706
C         40.11678        16.04664        -1.34944
C         38.92502        16.71464        -1.08717
C         40.23173        18.79738        -0.29871
C         38.92208        18.06234        -0.46600
C         40.21363        20.27423        -0.14280
C         38.94165        20.93679         0.00424
C         40.22653        23.11856         0.29832
C         38.93062        22.36180         0.52831
C         40.22742        24.56749         0.30265
C         39.01823        25.30733         0.22778
C         40.27388        27.40470         0.17626
C         39.03497        26.71814         0.15543
C         40.31041        28.87445         0.07161
C         38.99979        29.64205         0.22049
C         40.30014        31.73688         0.67640
C         39.04577        31.05077         0.61455
C         40.32119        33.10159         0.98463
C         39.07123        33.82069         1.21707
C         40.35093        36.03137         0.83904
C         39.07269        35.34812         1.15219
C         40.32325        37.42580         0.57964
C         39.06276        38.14372         0.51710
C         40.28966        40.27158         0.20138
C         39.03651        39.52307         0.37469
C         40.29843        41.77258         0.22985
C         39.01488        42.53442         0.39509
C         40.40319        44.47969        -0.57694
C         39.07154        44.02571         0.01107
C         40.43851        45.94312        -1.06891
C         39.16549        46.68935        -1.10172
C         40.43052        48.86718        -1.17249
C         39.12836        48.08487        -1.00854
C         40.35011        50.30645        -0.72154
C         39.09058        50.98295        -0.77042
C         40.28798        53.14605        -0.72522
C         39.05414        52.40251        -0.75693
C         40.29814        54.55059        -0.91898
C         39.02038        55.23833        -1.17643
C         40.30761        57.47798        -0.99739
C         39.01280        56.77138        -1.15905
C         40.34377        58.87545        -0.94628
C         42.50792        14.92486        -2.39230
C         41.28491        14.16927        -2.39485
C         42.60183        16.11674        -1.74776
C         41.44977        16.63269        -0.91674
C         42.66112        18.85054        -0.75574
C         41.45451        18.14115        -0.77243
C         42.71020        20.18804        -0.02311
C         41.41123        20.96826        -0.07335
C         42.69481        23.08926         0.17908
C         41.43582        22.40717         0.13749
C         42.71523        24.51812         0.65971
C         41.45877        25.28009         0.35221
C         42.75618        27.42005         0.37323
C         41.49056        26.68881         0.31112
C         42.77555        28.83762         0.42280
C         41.55713        29.59792         0.38699
C         42.80151        31.69645         0.69879
C         41.54956        30.98121         0.57897
C         42.81464        33.10374         0.83587
C         41.59033        33.84332         1.30956
C         42.80329        35.99529         0.75165
C         41.56102        35.31227         0.90287
C         42.80608        37.43418         0.58563
C         41.56108        38.14846         0.50242
C         42.78565        40.29430         0.32897
C         41.56781        39.55589         0.37724
C         42.81164        41.71910         0.33594
C         41.55989        42.51596         0.62690
C         42.83942        44.57594        -0.06014
C         41.61180        43.87983        -0.02470
C         42.89569        45.97824        -0.32620
C         41.77691        46.68973        -1.06343
C         42.81305        48.85299        -0.36061
C         41.66749        48.15027        -0.68708
C         42.79652        50.31264        -0.30194
C         41.53077        51.01284        -0.47964
C         42.72074        53.19315        -0.43515
C         41.51539        52.45685        -0.49828
C         42.73492        54.58314        -0.67341
C         41.50713        55.28194        -0.89866
C         42.75626        57.43297        -0.97959
C         41.51827        56.73223        -0.98588
C         42.75694        58.84281        -0.93771
C         41.56493        59.55485        -0.90523
C         45.08222        16.12395        -1.39032
C         43.87920        16.91023        -1.89786
C         45.09917        18.99608        -1.18330
C         43.84482        18.26471        -1.22634
C         45.13306        20.37208        -0.66321
C         43.93997        21.01366        -0.31925
C         45.17685        23.13113        -0.00644
C         43.92490        22.41424        -0.03634
C         45.17223        24.53908         0.21528
C         43.97765        25.27028         0.31948
C         45.23203        27.42688         0.35893
C         43.98596        26.69593         0.35712
C         45.24043        28.82588         0.48544
C         44.02006        29.54778         0.51873
C         45.27948        31.68773         0.59136
C         44.02754        30.97228         0.61335
C         45.25568        33.10939         0.55957
C         44.02486        33.82435         0.70032
C         45.30187        35.96073         0.69636
C         44.01644        35.25542         0.73587
C         45.30018        37.47002         0.56479
C         44.00717        38.15824         0.44901
C         45.26541        40.27632         0.21635
C         44.02382        39.57119         0.29521
C         45.26973        41.68756         0.21505
C         44.03333        42.41236         0.26719
C         45.26966        44.55766         0.31621
C         44.04924        43.85551         0.23134
C         45.25617        45.98202         0.30801
C         44.07680        46.69866        -0.03302
C         45.22280        48.90077         0.17712
C         44.06968        48.16265        -0.07781
C         45.23155        50.34589         0.07805
C         43.97356        51.02098        -0.10581
C         45.24085        53.18900        -0.40287
C         43.97011        52.51982         0.06210
C         45.23536        54.57223        -0.71995
C         43.99416        55.29489        -0.77679
C         45.24264        57.33314        -1.26268
C         44.00493        56.68563        -1.00491
C         46.24870        16.71345        -1.08024
C         47.63535        18.86886        -0.71445
C         46.42240        18.18036        -1.16730
C         47.62586        20.29286        -0.63624
C         46.39259        21.03328        -0.57474
C         47.65818        23.09584        -0.27553
C         46.41287        22.42711        -0.25458
C         47.73506        24.51392         0.08037
C         46.44597        25.26202         0.36355
C         47.72706        27.38604         0.23674
C         46.48274        26.72220         0.30276
C         47.77664        28.81525         0.34949
C         46.53425        29.52045         0.84160
C         47.74573        31.69515         0.44374
C         46.51665        30.99486         0.55165
C         47.72342        33.10149         0.37110
C         46.49040        33.82289         0.39990
C         47.70572        35.88177        -0.30101
C         46.50815        35.22257         0.33776
C         47.70562        37.40822        -0.28504
C         46.50270        38.16328         0.07217
C         47.77309        40.27489         0.08131
C         46.51571        39.55309         0.07947
C         47.76304        41.69249         0.24037
C         46.51492        42.40493         0.24118
C         47.74303        44.49137         0.55736
C         46.50692        43.80762         0.34967
C         47.69954        45.86631         0.88545
C         46.53688        46.69794         0.46336
C         47.67480        49.08771         0.77147
C         46.52088        48.21602         0.40443
C         47.70133        50.42417         0.31556
C         46.43792        51.07953         0.06532
C         47.69676        53.18084        -0.40921
C         46.46302        52.49814        -0.24703
C         47.71863        54.53073        -0.85073
C         46.46742        55.24693        -0.98085
C         46.43117        56.63194        -1.27441
C         50.05396        18.85256        -0.38419
C         48.85063        18.17899        -0.50063
C         50.11146        20.27406        -0.46003
C         48.87178        20.97768        -0.51961
C         50.11488        23.10198        -0.62056
C         48.88318        22.40300        -0.47546
C         50.07725        24.55696        -0.84235
C         48.91010        25.29572        -0.30469
C         50.28701        27.32486        -0.02876
C         48.93481        26.65105        -0.08826
C         50.21261        28.83476        -0.06003
C         48.98026        29.52100         0.19709
C         50.21697        31.64735         0.18473
C         49.00837        30.97031         0.30834
C         50.30503        33.09070         0.45894
C         48.95908        33.87950         0.53314
C         50.22045        35.97605         0.20384
C         49.00174        35.29073         0.20987
C         50.27443        37.40439         0.06259
C         49.03125        38.15292        -0.18639
C         50.24126        40.26205         0.30693
C         49.00338        39.58729         0.11033
C         50.23845        41.67472         0.46211
C         48.99241        42.37805         0.42595
C         50.20728        44.48465         0.86342
C         48.98188        43.78854         0.63195
C         50.14890        45.84461         1.20851
C         48.87506        46.39111         1.40913
C         50.13833        49.05785         0.91662
C         48.87149        48.58815         1.29397
C         50.15274        50.34840         0.35644
C         48.95352        51.08339         0.21952
C         50.23213        53.14202        -0.52796
C         48.98404        52.58301         0.10544
C         50.17762        54.40392        -1.07796
C         48.96507        55.12537        -1.16692
C         52.60810        20.31944        -0.40845
C         51.34612        21.00197        -0.52382
C         52.57319        23.14652        -1.04051
C         51.34235        22.41980        -0.73415
C         52.62968        24.54024        -1.18556
C         51.34152        25.28970        -1.18467
C         52.66430        27.41837        -0.74734
C         51.31200        26.81582        -1.07379
C         52.63641        28.76593        -0.43339
C         51.41601        29.51248        -0.21377
C         52.64385        31.67985        -0.20965
C         51.46021        30.96295        -0.10205
C         52.69041        33.16623        -0.41524
C         51.48170        33.86160         0.12310
C         52.72657        35.97226         0.18925
C         51.47725        35.24952         0.22084
C         52.72663        37.37657         0.28809
C         51.47802        38.09982         0.22190
C         52.70311        40.23219         0.49556
C         51.48182        39.53947         0.32220
C         52.70237        41.65781         0.64756
C         51.47287        42.37335         0.63652
C         52.67700        44.49559         1.02472
C         51.47510        43.79128         0.83636
C         52.66288        45.96417         1.26793
C         51.35662        46.71266         1.35729
C         52.64971        48.87555         0.81328
C         51.33589        48.12154         0.69742
C         52.69867        50.24585         0.48016
C         51.46603        50.92561        -0.01514
C         52.78295        53.06891        -0.23530
C         51.50392        52.37280        -0.44121
C         53.77541        20.94065        -0.70787
C         55.11309        23.04459        -1.44643
C         53.78260        22.31760        -1.22297
C         55.07679        24.52253        -1.48744
C         53.88509        25.27620        -1.33715
C         55.10623        27.44553        -0.79550
C         53.91160        26.71964        -1.03763
C         55.08271        28.71822         0.04243
C         53.91027        29.51327        -0.43525
C         55.18530        31.68205         0.01218
C         53.93244        30.99266        -0.35848
C         55.18998        33.09302         0.11962
C         53.97493        33.83653         0.03036
C         55.20608        35.95124         0.32677
C         53.97010        35.23718         0.18990
C         55.19788        37.37645         0.43793
C         53.95987        38.09651         0.41531
C         55.17791        40.23297         0.66424
C         53.95155        39.51518         0.52511
C         55.17470        41.66398         0.77217
C         53.93091        42.37122         0.78695
C         55.16040        44.50351         0.89682
C         53.92166        43.79564         0.91904
C         55.13076        45.97353         0.74468
C         53.88678        46.73366         0.98491
C         55.12965        48.89097         1.09662
C         53.86431        48.12642         0.94546
C         55.15997        50.33000         0.77940
C         53.92531        50.98165         0.45274
C         53.90072        52.39249         0.14258
C         57.55170        23.12980        -0.97980
C         56.39953        22.41421        -1.09323
C         57.59075        24.52983        -1.33459
C         56.36463        25.09110        -1.71960
C         57.61184        27.48676        -0.71962
C         56.38897        27.09994        -1.27888
C         57.61787        28.68712         0.19184
C         56.36875        29.50930         0.02019
C         57.64794        31.60861         0.34190
C         56.38631        30.90222         0.13222
C         57.64126        33.03670         0.35178
C         56.44528        33.79150         0.25982
C         57.65599        35.97785         0.33471
C         56.44539        35.23612         0.29204
C         57.66319        37.38229         0.53403
C         56.42259        38.09694         0.56687
C         57.64683        40.23816         0.81535
C         56.41497        39.52095         0.68413
C         57.64137        41.65930         0.90429
C         56.40203        42.37995         0.87094
C         57.65639        44.53884         0.94640
C         56.39349        43.81748         0.89452
C         57.69608        45.94468         0.94710
C         56.44688        46.70176         0.76339
C         57.70949        48.88437         0.91905
C         56.45075        48.15044         1.12353
C         57.63484        50.27165         0.84080
C         56.40833        50.96445         0.75156
C         60.04576        24.64630        -1.31525
C         58.80471        25.32733        -1.25064
C         60.06326        27.37372        -0.59059
C         58.81333        26.73548        -0.92100
C         60.08370        28.78948        -0.20900
C         58.89062        29.47726         0.05738
C         60.14763        31.52448         0.65850
C         58.86632        30.87195         0.34836
C         60.18850        33.09500         0.62922
C         58.92509        33.74372         0.20834
C         60.18875        35.98885         0.41662
C         58.93375        35.28912         0.13833
C         60.15022        37.38580         0.67703
C         58.90194        38.09418         0.67775
C         60.11133        40.22138         1.02254
C         58.88852        39.51423         0.84214
C         60.10546        41.65724         1.11436
C         58.87993        42.37466         1.02579
C         60.11984        44.51262         1.14743
C         58.88887        43.80742         1.04711
C         60.14927        45.95765         1.09484
C         58.92099        46.67926         1.00957
C         60.18538        48.77337         0.87525
C         58.94340        48.11890         0.91378
C         61.24388        25.29320        -1.06053
C         61.25263        26.64193        -0.67935
C         61.32689        29.50243        -0.07548
C         61.37242        30.77448         0.41309
C         61.42032        33.85963         0.43955
C         61.39749        35.22904         0.35750
C         61.34812        38.12038         0.92495
C         61.32732        39.48263         1.08783
C         61.31438        42.39020         1.26812
C         61.32098        43.76471         1.28145
C         61.37039        46.67351         1.07840
C         61.38255        48.05666         0.96165
O         45.52435        36.85240         1.89171
O         28.33950        39.94514         0.71575
O         32.01373        27.51591        -0.83696
O         34.65144        22.92726        -1.78764
O         49.70165        33.49037         1.72862
O         59.01604        34.43941        -1.06670
O         47.28725        24.74833         1.46898
O         56.42302        26.29534        -2.43038
O         40.33112        41.12610        -1.06434
O         40.48076        44.80506        -1.99496
O         52.08496        46.45869         2.57522
O         23.31306        39.84026        -2.12273
O         55.79190        46.42322        -0.51982
O         39.61599        29.39929        -1.10656
O         39.09409        34.66960         2.45434
O         30.34153        40.60451        -2.17132
O         26.71239        30.45278         3.09946
O         38.06602        44.75798        -2.21310
O         23.61341        46.20581         1.25934
O         27.62187        36.73245         1.34887
O         34.27305        42.82615        -2.28521
O         33.50878        28.72766         2.41680
O         45.91483        18.79716        -2.40115
O         31.65667        47.53769        -2.29422
O         54.10801        30.26625        -1.67394
O         23.42872        37.28566        -2.12598
O         38.96532        56.02370        -2.41930
O         54.39493        22.40868        -2.56021
O         50.42529        24.86800        -2.26240
O         38.25876        42.41138         1.63270
O         60.11509        32.35055         1.87632
O         46.89718        47.41778        -0.79767
O         23.41374        34.81641        -1.49166
O         48.79059        47.53603         2.19190
O         51.56496        51.27434        -1.44693
O         55.78341        48.51077         2.37457
O         36.58658        47.45924        -2.62361
O         34.30169        38.43723        -1.61492
O         39.60538        18.08590         0.86185
O         48.37738        37.89405        -1.49920
O         42.74360        24.41932         2.14397
H         43.50354        23.84526         2.38212
O         49.05535        53.04696         1.52495
H         48.21058        52.78951         1.95396
O         34.98438        52.90630        -2.43152
H         35.68224        53.36924        -2.94030
O         34.45188        52.47355         1.16572
H         33.67299        52.15415         1.66711
O         41.65831        16.14474         0.46164
H         40.92966        16.54375         0.99699
O         52.65697        33.33236        -1.88474
H         53.29658        32.69246        -2.26783
O         51.20931        47.75644        -0.71657
H         51.24442        48.57778        -1.25421
O         28.11404        26.75140         3.26988
H         28.94345        27.14094         3.62161
O         29.35786        31.17305         3.36960
H         28.50404        30.91762         3.79243
O         27.05003        34.64124        -1.61450
H         26.23965        34.28886        -2.04152
O         37.42017        24.65450         1.85361
H         38.02037        23.99323         2.28140
O         44.06055        17.10274        -3.33037
H         44.84083        17.70325        -3.43212
O         26.51756        48.08081        -2.23460
H         26.63960        49.01819        -2.49689
O         42.20026        46.70342        -2.47748
H         41.94827        45.82234        -2.84534
O         50.94673        27.35540        -2.35929
H         50.53543        26.62214        -2.87575
O         26.79813        39.20404        -2.57929
H         25.95399        38.86077        -2.94423
O         37.54334        40.07415         2.10777
H         38.02493        40.81348         2.54841
O         33.95898        31.24171         2.96614
H         33.67553        30.38985         3.37520
O         31.59737        34.10933         2.68385
H         31.56581        33.23254         3.12657
O         33.12274        31.32152        -0.59045
H         32.39169        31.71303        -1.11288
O         38.98760        44.79189         1.24734
H         38.58063        44.20243         1.92703
O         43.96076        52.73206         1.53358
H         43.91664        53.70088         1.68366
O         23.98877        43.90483        -2.20580
H         23.41723        43.18628        -2.55426
O         41.46609        42.67498         2.08192
H         42.26085        43.16642         2.37896
O         23.15592        27.19354         3.58410
H         23.22268        26.22928         3.74940
O         46.60632        29.42466         2.32058
H         46.52288        28.47494         2.55420
O         36.29100        20.94610         1.56461
H         36.21181        19.99919         1.81335
O         47.61082        35.46977        -1.70659
H         48.08593        36.16327        -2.22545
O         28.02096        24.05510         2.47078
H         28.01898        24.88447         3.01350
O         50.83691        26.94789         1.27039
H         50.23881        27.29149         1.96697
O         42.87575        19.81867         1.39378
H         42.08395        19.30010         1.65591
O         32.89629        48.35217         1.02978
H         33.67492        48.78583         1.43884
O         41.68523        33.83942         2.78072
H         40.83902        34.23269         3.10953
O         31.09460        52.50952        -2.00621
H         30.29805        51.95300        -2.13863
O         36.92309        25.35580        -1.69539
H         36.14791        25.66337        -2.21077
O         40.60412        48.96833        -2.63106
H         41.11699        48.17218        -2.92307
O         57.59480        28.17955         1.59518
H         57.88024        28.91939         2.17411
O         26.80069        43.47039         1.24739
H         27.54647        42.85040         1.40433
O         54.83022        28.35968         1.43079
H         55.68946        28.02823         1.79294
O         38.78145        22.24607         1.99472
H         37.94384        21.73325         2.13909
H         22.76706        23.75493         0.43720
H         20.70060        24.96419         1.03081
H         20.74766        27.14450         2.12131
H         20.84378        29.03180         1.65348
H         20.84601        31.41387         1.14343
H         20.86214        33.35748         1.26317
H         20.74890        35.58340         0.35582
H         20.72707        37.39445        -0.16843
H         20.75372        39.77437        -0.04202
H         20.81063        41.67800         0.09849
H         20.86047        44.10925         0.50168
H         20.71349        46.07363        -0.40435
H         22.88549        49.78487        -0.27001
H         20.77192        48.53943        -0.39648
H         24.42948        22.91425        -0.18336
H         24.59267        50.65157         0.34166
H         26.52226        21.76008        -0.69103
H         26.72496        51.83019         0.39831
H         30.19601        19.36794        -0.74807
H         28.10532        20.56514        -0.36973
H         30.48778        53.92751         0.59820
H         28.45877        52.61064         1.00301
H         31.82449        18.38101        -0.86924
H         31.91692        54.99272        -0.74451
H         33.92903        17.18864        -1.05375
H         34.02496        56.26696        -0.49217
H         37.57917        15.11376        -1.75224
H         35.53323        16.32315        -1.38453
H         37.74646        58.46806        -0.48646
H         35.67914        57.21042        -0.40483
H         39.18894        14.17339        -2.03698
H         39.41041        59.45392        -0.96227
H         43.36285        14.54656        -2.97101
H         41.27114        13.17203        -2.85580
H         43.70521        59.39523        -0.91067
H         41.57971        60.65256        -0.86750
H         44.98932        15.02973        -1.31629
H         45.26396        58.40829        -1.48338
H         47.09076        16.10674        -0.71503
H         47.36170        57.17465        -1.48702
H         50.97631        18.26389        -0.29454
H         48.85726        17.08004        -0.50517
H         51.09152        54.86940        -1.47605
H         49.00143        56.14516        -1.57161
H         52.62822        19.26898        -0.08838
H         52.82218        54.16031        -0.36240
H         54.71836        20.37932        -0.67039
H         54.83162        52.96433         0.25888
H         58.47561        22.62133        -0.67076
H         56.42383        21.32810        -0.93272
H         58.55449        50.86865         0.76615
H         56.46323        52.04994         0.59260
H         60.06124        23.58392        -1.59440
H         60.22901        49.86733         0.79227
H         62.19229        24.74411        -1.13773
H         62.21722        27.10870        -0.44170
H         62.27427        28.99241        -0.29395
H         62.33974        31.25505         0.61288
H         62.38649        33.34107         0.50857
H         62.36092        35.75667         0.32407
H         62.31034        37.59422         0.97329
H         62.27893        40.00087         1.26107
H         62.27194        41.86393         1.36848
H         62.28258        44.28071         1.39701
H         62.32916        46.14289         1.13668
H         62.34026        48.59460         0.93793
