         621
 CSIRO Nanostructure Databank - Neutral Graphene Oxide Data Set
C          5.60591        31.73854         1.89890
C          5.58402        33.09930         1.93723
C          8.10012        27.44095         1.64682
C          8.08762        28.82826         1.91401
C          6.87294        29.55852         1.96820
C          8.05436        31.68614         1.83141
C          6.85614        30.97923         1.90814
C          7.97623        33.08843         1.28411
C          6.80212        33.88877         1.82177
C          8.10460        36.01427         1.98831
C          6.83207        35.24520         1.95992
C          8.19518        37.46803         1.83851
C         10.71869        23.46071         0.12028
C         10.61190        24.63172         1.00416
C          9.36657        25.39751         1.12872
C         10.53431        27.38664         2.11311
C          9.31353        26.69908         1.60803
C         10.55283        28.86429         2.14920
C          9.34095        29.53751         2.05974
C         10.62248        31.64482         1.78944
C          9.33019        31.02588         2.27461
C         10.61693        33.06701         1.41500
C          9.31387        33.81232         1.29569
C         10.60797        35.96134         1.38504
C          9.37061        35.24060         1.72639
C         10.61359        37.34094         1.24258
C          9.40158        38.12626         1.52784
C         10.56400        40.22863         0.84323
C          9.49715        39.54085         1.56456
C         10.83823        41.67304         0.89388
C         13.28739        19.45287        -1.10880
C         13.26904        20.80539        -0.65965
C         12.04567        21.53908        -0.67384
C         13.21226        23.57517         0.09744
C         11.94479        22.83881        -0.13013
C         13.17077        24.91818         0.74661
C         11.90276        25.32010         1.42508
C         13.11879        27.47727         2.09789
C         11.86342        26.69164         2.02267
C         13.06725        28.88078         2.32561
C         11.81126        29.55976         2.25165
C         13.13504        31.67827         1.76496
C         11.81014        30.98065         2.01260
C         13.03808        33.14842         2.09967
C         11.83403        33.84839         1.66495
C         13.08988        35.92507         1.34491
C         11.83538        35.21886         1.44513
C         13.06383        37.28181         0.84790
C         11.84092        37.96995         0.82460
C         12.94977        40.00945        -0.19019
C         11.72166        39.35879         0.35351
C         13.13394        41.47767        -0.09228
C         12.01249        42.26357         0.43512
C         13.35309        44.33195         0.11234
C         12.16465        43.68946         0.46260
C         13.43708        45.73994         0.05125
C         15.95723        15.61108        -2.79300
C         15.86934        16.85145        -2.11045
C         14.62522        17.51958        -1.92866
C         15.69419        19.35154        -0.69707
C         14.52520        18.75549        -1.23309
C         15.58706        20.48338         0.27022
C         14.45445        21.37807        -0.11648
C         15.65397        23.40192         0.93302
C         14.54412        22.81923         0.12255
C         15.64704        24.69569         1.38640
C         14.44524        25.54395         1.25655
C         15.53385        27.46567         2.43277
C         14.34757        26.81063         2.02232
C         15.51407        28.85053         2.68043
C         14.31400        29.59544         2.49943
C         15.54009        31.76067         2.54244
C         14.35300        31.02534         2.39142
C         15.62177        33.19005         2.28106
C         14.33594        33.93432         2.18194
C         15.53000        36.07612         1.61372
C         14.28734        35.29240         1.63864
C         15.54444        37.32970         0.81480
C         14.32892        37.88007         0.42286
C         15.33482        39.89684        -0.82430
C         14.17100        39.15943        -0.33392
C         15.51135        41.24948        -0.75898
C         14.36893        42.05155        -0.33432
C         15.62636        44.15302        -1.00430
C         14.61729        43.51553        -0.05292
C         15.70018        45.64077        -1.00101
C         14.59312        46.42518        -0.39138
C         15.85168        48.48803        -0.89457
C         14.66770        47.81483        -0.45056
C         15.89058        49.87893        -1.00898
C         18.63515        11.80137        -4.55670
C         18.52802        13.12285        -4.03667
C         17.31488        13.75809        -3.76262
C         18.38412        15.67722        -2.59856
C         17.21084        15.02511        -3.07796
C         18.33014        16.86709        -1.81836
C         17.06895        17.47548        -1.64235
C         18.25313        19.42018        -0.43983
C         16.99939        18.81909        -1.06519
C         18.08487        20.57510         0.47067
C         16.88518        21.21359         0.55376
C         18.05078        23.11818         1.89977
C         16.76475        22.48227         1.31209
C         18.05153        24.55455         2.15037
C         16.68215        25.14699         2.41918
C         18.08019        27.38747         2.82472
C         16.74313        26.65742         2.67930
C         18.04591        28.85064         2.89267
C         16.76504        29.53213         3.06452
C         18.07379        31.83531         3.01078
C         16.75269        31.09729         3.05338
C         18.09829        33.24015         2.50595
C         16.81349        33.90550         2.31072
C         18.10174        36.09107         1.95285
C         16.78495        35.38554         2.09326
C         18.14449        37.37562         1.23178
C         16.86438        38.10235         0.84094
C         18.21433        39.80741        -0.35655
C         17.19216        38.92654        -0.37946
C         18.13820        41.09149        -1.13294
C         16.81127        41.86169        -1.21393
C         18.19122        44.07306        -1.26941
C         16.87668        43.36559        -1.33258
C         18.20685        45.54272        -1.24705
C         17.01541        46.30240        -1.17638
C         18.28767        48.40684        -1.35425
C         17.05358        47.71744        -1.15185
C         18.31924        49.84129        -1.41184
C         17.09935        50.58111        -1.30416
C         18.32848        52.68618        -1.65703
C         17.11414        51.98599        -1.45539
C         18.37498        54.09575        -1.84643
C         21.34533         7.87850        -5.91907
C         21.22809         9.20322        -5.48579
C         19.99155         9.83794        -5.24699
C         21.08734        11.83382        -4.27950
C         19.88199        11.16847        -4.74085
C         21.06558        13.10747        -3.73931
C         19.78549        13.85338        -3.77069
C         20.87481        15.54952        -2.21452
C         19.68635        15.16030        -3.01573
C         20.79833        16.72379        -1.29706
C         19.51845        17.44674        -1.20371
C         20.64721        19.06057         0.29985
C         19.48615        18.60787        -0.43144
C         20.50000        20.18002         1.26923
C         19.23921        21.00220         1.29927
C         20.53076        23.03134         2.10400
C         19.30926        22.40032         1.75340
C         20.52393        24.48868         2.29109
C         19.28099        25.23108         2.28720
C         20.56928        27.32203         2.60448
C         19.33916        26.65282         2.54287
C         20.59379        28.77876         2.95259
C         19.31131        29.54968         3.14542
C         20.65969        31.70726         2.76311
C         19.36600        31.05406         3.11060
C         20.60147        33.11993         2.34961
C         19.31874        33.87365         2.36882
C         20.66484        36.03080         1.87455
C         19.38548        35.34354         2.17951
C         20.61894        37.40963         1.44048
C         19.34586        38.03462         1.08235
C         20.64857        40.07892         0.18624
C         19.35271        39.42402         0.51590
C         20.74020        41.08611        -0.95942
C         19.43109        41.86625        -1.26260
C         20.60800        44.10353        -0.88476
C         19.37144        43.35906        -1.22870
C         20.70357        45.54694        -1.16251
C         19.44827        46.25483        -1.32267
C         20.80519        48.31664        -1.75452
C         19.48038        47.65478        -1.44268
C         20.80669        49.81576        -1.60828
C         19.56455        50.54031        -1.53394
C         20.81888        52.68716        -1.67272
C         19.55437        51.94738        -1.61479
C         20.79570        54.05077        -2.19745
C         19.58156        54.77019        -2.18019
C         20.79356        56.90286        -2.65775
C         19.63572        56.19747        -2.33009
C         20.83212        58.30746        -2.34646
C         23.96426         5.31727        -6.76109
C         22.71154         5.93833        -6.59462
C         23.83648         7.97141        -5.80542
C         22.61564         7.25876        -6.12742
C         23.78163         9.28167        -5.32083
C         22.48192        10.04445        -5.40053
C         23.62376        11.78636        -3.89648
C         22.36004        11.09498        -4.32611
C         23.53699        13.18111        -3.44659
C         22.27840        13.77293        -3.33224
C         23.41369        15.78571        -2.22087
C         22.18831        15.14148        -2.79036
C         23.30616        16.83277        -1.18150
C         22.03718        17.37436        -0.82283
C         23.10393        18.75350         0.96974
C         21.89806        18.45859         0.08494
C         23.01503        20.08428         1.74052
C         21.71734        20.81601         1.89324
C         22.94362        22.89720         2.78462
C         21.71117        22.26428         2.24930
C         22.85815        24.37840         3.16729
C         21.73893        25.16598         2.51833
C         23.07866        27.24785         2.83116
C         21.79307        26.58190         2.60703
C         23.10853        28.73673         2.69113
C         21.85347        29.54656         2.68135
C         23.15745        31.76108         2.88571
C         21.87099        31.04521         2.82137
C         23.17150        33.19418         2.71424
C         21.92882        33.86940         2.23405
C         23.09921        36.10717         2.19945
C         21.85810        35.35741         2.12901
C         23.10081        37.55887         1.63871
C         21.82676        38.08582         1.14916
C         23.10842        39.86333         0.02399
C         21.89140        39.31757         0.43788
C         23.13234        41.25992        -0.39634
C         21.96362        41.92052        -0.68423
C         23.14545        44.13174        -0.59912
C         21.88831        43.37813        -0.60189
C         23.14308        45.52262        -0.76861
C         21.91210        46.21279        -1.03253
C         23.29526        48.33240        -1.33495
C         21.95200        47.72056        -0.93663
C         23.28303        49.70709        -1.73856
C         22.04703        50.44225        -1.70795
C         23.32505        52.56141        -2.27960
C         22.12288        51.91509        -1.71267
C         23.29485        53.90696        -2.67138
C         22.00023        54.62762        -2.78226
C         23.33202        56.73295        -3.32779
C         21.97828        56.12620        -3.15530
C         23.44118        58.07492        -3.69020
C         21.74224        59.19403        -2.93618
C         23.47705        60.96095        -2.97983
C         22.24168        60.43840        -2.51263
C         25.14018         5.98115        -6.45731
C         26.29390         8.02405        -5.66803
C         25.11362         7.32132        -5.96351
C         26.25523         9.34139        -5.15075
C         24.97329         9.96395        -4.93797
C         26.09749        11.95539        -4.01745
C         24.92513        11.25000        -4.33553
C         26.03396        13.25322        -3.39038
C         24.75278        13.87118        -3.10975
C         25.86709        15.75290        -1.95964
C         24.70055        15.10023        -2.41526
C         25.79140        16.87668        -1.09034
C         24.50647        17.35488        -0.67297
C         25.66138        19.14000         0.70181
C         24.39980        18.55532         0.18875
C         25.58934        20.16498         1.78020
C         24.29392        20.77832         2.12427
C         25.50373        23.05193         2.25748
C         24.28788        22.22050         2.57245
C         25.36337        24.43127         2.35926
C         24.26939        25.05114         3.23983
C         25.59441        27.26395         3.30628
C         24.24551        26.56557         3.06726
C         25.59472        28.74059         2.97435
C         24.29838        29.43854         3.29809
C         25.61191        31.42276         3.40104
C         24.32350        30.93441         3.07930
C         25.63520        33.55410         3.21689
C         24.34851        34.05460         2.77838
C         25.62758        36.16901         2.31013
C         24.36570        35.38411         2.33975
C         25.65825        37.60814         1.72903
C         24.36112        38.09262         1.12065
C         25.60658        39.84038        -0.25866
C         24.35447        39.20742         0.31490
C         25.59923        41.33947        -0.10486
C         24.37228        42.00150        -0.23744
C         25.49840        44.15104         0.04458
C         24.33737        43.42078        -0.31246
C         25.44981        45.57219        -0.07053
C         24.38257        46.25887        -0.65472
C         25.74899        48.15231        -1.85118
C         24.48473        47.63647        -1.13038
C         25.72975        49.65669        -2.10299
C         24.51694        50.38639        -2.03618
C         25.72508        52.42992        -2.77217
C         24.51934        51.78880        -2.36542
C         25.72803        53.83444        -3.02279
C         24.51783        54.57106        -2.99607
C         25.79219        56.66713        -3.43763
C         24.53532        55.98666        -3.24362
C         25.83331        58.08755        -3.54098
C         24.64575        58.83017        -3.61367
C         24.55934        60.26735        -3.51060
C         27.43362        10.06572        -4.83663
C         28.56100        12.11078        -3.99429
C         27.37811        11.36244        -4.30005
C         28.49641        13.37424        -3.43540
C         27.22324        13.95207        -3.12497
C         28.42749        15.89925        -1.91340
C         27.15179        15.28661        -2.50057
C         28.25081        16.80036        -0.77192
C         27.01346        17.37539        -0.47800
C         28.07088        18.92087         1.15504
C         26.95985        18.46152         0.48779
C         28.00708        20.06841         2.14710
C         26.81584        20.96497         1.91420
C         28.09052        22.96639         2.22845
C         26.78458        22.32950         2.03071
C         28.29491        24.27327         1.88898
C         26.43553        25.33619         2.00578
C         28.03920        27.20009         2.42876
C         26.72182        26.56102         2.56352
C         28.01446        28.69255         2.36376
C         26.77212        29.41820         2.73888
C         28.08078        31.61644         2.90486
C         26.83717        30.84503         2.99711
C         28.09276        33.13617         2.96914
C         26.85178        33.94255         2.72166
C         28.17351        35.88665         1.80757
C         26.92517        35.37634         2.39167
C         28.08158        37.07267         0.93358
C         26.81526        37.85226         0.76070
C         28.10064        39.84958        -0.09675
C         26.90641        39.23846         0.21442
C         28.11240        41.36838        -0.35227
C         26.81799        42.04842         0.08774
C         28.71579        44.57046         0.03547
C         26.68915        43.42501         0.32790
C         28.64191        45.91467        -0.49435
C         27.45306        46.62511        -0.51933
C         28.23201        48.18774        -2.19072
C         27.17182        47.69799        -1.43668
C         28.09254        49.46549        -2.89815
C         26.89555        50.28405        -2.60638
C         28.16546        52.33330        -3.25772
C         26.92114        51.66509        -2.91166
C         28.16058        53.74597        -3.39854
C         26.97487        54.50474        -3.30460
C         26.98404        55.90728        -3.46733
C         29.77585        14.16769        -3.22000
C         30.80627        15.55450        -1.38666
C         29.70423        15.17299        -2.08690
C         30.75076        16.60730        -0.38579
C         29.41709        17.04157         0.08571
C         30.59650        18.84767         1.52904
C         29.34486        18.18890         1.10602
C         30.53315        19.93083         2.60712
C         29.31936        20.77731         2.32339
C         30.52740        22.95227         3.01643
C         29.24201        22.17447         2.73218
C         30.51114        24.42147         2.80621
C         29.39165        25.09117         2.34196
C         30.60434        27.30050         2.25002
C         29.26868        26.54945         2.36259
C         30.56756        28.77990         2.56944
C         29.29454        29.49298         2.35919
C         30.56628        31.61367         2.22031
C         29.26236        30.95492         2.62778
C         30.62929        33.09571         2.39896
C         29.38092        33.85593         2.61495
C         30.58320        35.66466         1.31153
C         29.33153        35.18697         1.95084
C         30.58259        36.99682         0.61137
C         29.31490        37.74035         0.53433
C         30.54330        39.40009        -0.61745
C         29.30180        39.00505        -0.01165
C         30.60953        41.53255        -1.15661
C         29.36839        42.21602        -0.71694
C         30.98423        44.26710        -0.74805
C         29.63524        43.67071        -0.45920
C         31.06664        45.75926        -1.07639
C         29.69458        46.24696        -1.46611
C         30.77333        48.14211        -2.75152
C         29.52327        47.47420        -2.30236
C         30.70450        49.46423        -3.14124
C         29.42289        50.17212        -3.31644
C         29.37069        51.62330        -3.34750
C         31.86858        17.19297         0.13817
C         33.05063        18.90011         1.42301
C         31.82826        18.31806         1.06496
C         33.13138        20.14411         2.18783
C         31.82889        20.75783         2.74402
C         33.00953        22.93533         2.93153
C         31.82005        22.23128         2.90280
C         33.03456        24.36567         3.31856
C         31.69569        25.17442         3.21438
C         32.95933        27.26451         3.22124
C         31.77290        26.60465         2.94564
C         32.95498        28.75255         3.27836
C         31.74266        29.48086         2.82620
C         33.05252        31.60948         2.69872
C         31.81524        30.91092         2.71775
C         33.09205        33.02339         2.31586
C         31.83802        33.74395         2.18719
C         33.06598        35.79957         1.48053
C         31.87461        35.12474         1.76458
C         33.04621        37.14482         0.93388
C         31.85691        37.73709         0.52106
C         33.01117        39.80466        -0.44226
C         31.78956        38.98477        -0.19499
C         33.02476        41.01471        -1.36619
C         31.88730        41.97184        -1.16272
C         33.33734        43.94764        -1.76698
C         32.16645        43.41404        -1.01244
C         33.25139        45.29035        -2.27286
C         32.12620        46.12029        -2.10414
C         31.98898        47.37346        -2.73835
C         34.25760        21.03263         1.97029
C         35.43691        23.10883         2.44563
C         34.25595        22.33099         2.48137
C         35.48481        24.46546         2.85372
C         34.25998        25.15509         3.21989
C         35.47948        27.27029         3.61148
C         34.20615        26.54345         3.39644
C         35.54254        28.77167         3.54414
C         34.24815        29.52307         3.39784
C         35.53258        31.55102         2.65682
C         34.28835        30.92130         2.91710
C         35.54870        33.01556         2.45936
C         34.28658        33.72344         2.16171
C         35.53754        35.74061         1.39198
C         34.33306        35.10988         1.70517
C         35.60548        37.16300         0.95603
C         34.31040        37.90957         0.78133
C         35.56435        39.69852        -0.62201
C         34.30699        39.22118         0.02450
C         35.57468        40.89907        -1.32635
C         34.34854        41.64091        -1.67094
C         34.38834        43.08599        -2.01991
C         36.69267        25.15511         2.79264
C         37.98477        27.27276         2.87890
C         36.80389        26.50907         3.29883
C         38.00019        28.63391         2.75498
C         36.82867        29.46191         3.13532
C         37.96027        31.45687         2.11728
C         36.76875        30.86151         2.64520
C         38.00403        32.81283         1.74921
C         36.86897        33.67631         2.09051
C         38.04347        35.60192         0.78965
C         36.83710        35.08497         1.58537
C         37.86469        36.79927        -0.03126
C         36.77057        37.63340         0.14360
C         36.71571        38.87813        -0.53883
C         39.13873        29.28668         2.17385
C         40.26926        31.20853         1.18495
C         39.13167        30.62750         1.85997
C         40.24693        32.48867         0.73473
C         39.11101        33.35007         0.99219
C         39.10766        34.64066         0.49418
O         16.59933        30.35254         4.27507
O         28.31663        41.86659        -1.72072
O         19.49268        19.94582         2.31399
O         35.10950        38.06292         2.00161
O         13.19587        39.27451        -1.44847
O         21.70068        55.11987        -4.15720
O         16.27107        39.04898        -1.41805
O         20.70847        15.28685        -0.79682
O         17.86190        19.79969        -1.80843
O         29.34231        46.10826        -2.86542
O         13.51711        33.63281         3.37939
O         10.61498        39.63015        -0.53307
O         18.74297        36.10665         3.27808
O         36.40630        33.64593         3.47607
O         22.91985        10.79741        -3.02188
O         29.20284        16.77699         1.51181
O         17.04692        22.35314         2.71829
O         19.90683        40.47292         1.37602
O         22.30067        58.71824        -4.14903
O         27.34376        24.86398         1.04559
O         20.99327        43.79995         0.52500
O         28.92044        33.74696         4.01541
O         19.89851        15.15135        -4.45939
O         27.71928        44.15756         0.90399
O         27.88453        16.35940        -3.19516
O         36.30162        26.71308         4.66155
O         28.60149        29.14453         1.08753
O         30.52926        35.73463        -0.16625
O         28.51692        49.49356        -4.27779
O         14.10083        23.58741        -1.05177
O          8.96573        35.47391         3.10997
O         25.64955        32.56319         4.18459
O         22.84038        16.20547        -3.53965
O         24.98825        19.86193         3.06761
O         26.40717        36.15567         3.54751
O         11.13060        26.74699         3.29086
O         36.42124        29.34786         4.54591
O         23.09204        37.28684         3.07744
O         16.68150        42.52238        -2.50999
O         22.55039        29.19129         1.42488
O         20.08103        29.00610         4.30054
O         32.75360        20.07968         3.63547
O         29.67649        22.48195         4.11788
O         13.87132        25.88618        -0.07935
O         21.30364        33.26014         1.04239
O         21.67854        52.53626        -0.45942
O         11.34848        24.31630         2.29062
O         33.39744        29.29445         4.57269
O         10.05108        33.48139         0.08511
O         33.61470        40.23399         0.83468
O         33.52021        40.83479        -2.71175
O         23.69065        22.27280         3.90632
O         15.14489        44.87536        -2.15882
O         15.98638        36.19125         3.03868
O         17.31523        26.85782         4.00437
O         27.11778        36.80193        -0.19023
O         18.80482        41.21176        -2.42368
O         31.95562        43.95470         0.34619
O         22.21726        19.91875         2.95951
O         30.41254        40.25977        -1.69354
O         37.85059        35.90353         2.22975
O         26.50810        46.31606         0.45370
O         32.23980        24.71526         4.48146
O         18.78042        31.70238         4.28800
O         24.98652        19.71397        -0.49616
O         16.17005        24.58547         3.66070
H         16.68479        24.99577         4.39304
O         25.92366        38.51293         2.82947
H         25.31565        38.27631         3.56391
O         30.89496        13.29872        -3.05835
H         30.76843        12.77661        -2.24003
O         21.10258        48.01392        -3.14887
H         20.34842        48.31513        -3.69711
O          9.33773        31.23905         3.74530
H         10.03842        30.66309         4.12173
O         24.09046        29.27708         4.74629
H         24.75092        28.61771         5.08392
O         21.70520        48.05741         0.45229
H         22.33911        47.55935         1.00932
O         30.92584        27.25467         0.81094
H         30.24074        27.80363         0.36199
O         22.54422        10.80972        -6.65058
H         22.56630        10.17008        -7.39328
O         23.11721        17.69628         1.95547
H         22.61982        18.02763         2.74073
O         15.31355        43.55434         1.23782
H         14.69875        43.22798         1.92842
O         21.07865        40.28899        -2.12139
H         20.28992        40.29320        -2.71882
O         25.58301        47.52882        -3.16989
H         26.27825        47.87719        -3.76954
O         30.34602        19.23289         3.88480
H         31.23619        19.15691         4.30503
O         25.86546        27.21081         4.74487
H         25.63717        26.29315         5.04464
O         13.36997        31.65801         0.31897
H         13.27722        30.73214         0.00983
O         27.71318        19.44935         3.44131
H         28.56377        19.12826         3.83406
O          7.60800        32.90408        -0.12422
H          8.45519        32.81397        -0.62351
O         22.36576        24.33110         4.53985
H         22.31119        25.24883         4.88049
O         16.63623        39.09563         1.90098
H         16.63491        38.60656         2.75493
O         25.56432        39.55352        -1.68939
H         26.32282        40.00775        -2.11569
O         24.76427        24.78430         4.58562
H         24.47567        23.86114         4.81008
O         30.59634        31.41713         0.74592
H         31.31104        31.98185         0.38091
O         15.25610        19.88596         1.59730
H         15.57205        20.49259         2.30316
O         31.40689        46.46822         0.13891
H         31.99735        45.86741         0.65361
H          4.66482        31.17418         1.97814
H          4.62930        33.63018         2.07139
H          7.15296        26.92778         1.42380
H          5.91912        29.01057         1.93968
H          5.90007        35.78655         2.18926
H          7.27343        38.06340         1.92132
H          9.79105        22.95921        -0.19473
H          8.45052        24.94924         0.71461
H          8.68572        40.12841         2.01904
H         10.07685        42.31951         1.35651
H         12.36392        18.99760        -1.49313
H         11.12431        21.01178        -0.96229
H         11.28241        44.30056         0.70734
H         12.54974        46.33096         0.32705
H         15.03611        15.12508        -3.14641
H         13.71168        17.06118        -2.33558
H         13.81015        48.41998        -0.11949
H         14.97173        50.45915        -0.83742
H         17.71462        11.25510        -4.81261
H         16.37751        13.23852        -4.01350
H         16.16802        52.54474        -1.41449
H         17.43888        54.67106        -1.80040
H         20.43603         7.27753        -6.07575
H         19.06426         9.27910        -5.44924
H         18.73765        56.76858        -2.05117
H         20.12225        58.68238        -1.59345
H         24.00332         4.28424        -7.13443
H         21.79337         5.38211        -6.83229
H         23.65896        62.02469        -2.75442
H         21.69143        61.01058        -1.75168
H         26.10960         5.47941        -6.58876
H         27.26730         7.53887        -5.83463
H         26.80805        58.59644        -3.53854
H         25.49009        60.83443        -3.66602
H         28.41297         9.59518        -5.00997
H         29.54526        11.67309        -4.21817
H         29.10773        54.25986        -3.61980
H         27.94194        56.42078        -3.63728
H         29.96111        14.75343        -4.16436
H         31.77510        15.07459        -1.59425
H         31.62834        50.02424        -3.35106
H         30.31821        52.18038        -3.39358
H         32.86161        16.85370        -0.19365
H         33.97703        18.51696         0.97062
H         34.06442        45.63984        -2.92923
H         32.84374        47.76954        -3.30920
H         35.13149        20.66421         1.41374
H         36.37078        22.62920         2.11880
H         36.53265        41.27440        -1.71968
H         35.27714        43.45728        -2.55487
H         37.57093        24.68212         2.32951
H         38.85630        26.69732         2.53012
H         38.65859        37.07836        -0.74017
H         37.61944        39.20109        -1.07787
H         40.02134        28.67561         1.93273
H         41.14646        30.56945         1.00787
H         41.10626        32.90878         0.19290
H         39.92804        34.96351        -0.16429
