         314
 CSIRO Nanostructure Databank - Neutral Graphene Oxide Data Set
C         30.60410        57.09008        -1.16528
C         30.61203        58.49213        -1.29436
C         29.45888        59.20354        -1.72122
C         30.65417        61.31647        -1.60310
C         29.48708        60.58599        -1.86491
C         32.87621        52.85417        -0.05867
C         32.87031        54.24749        -0.20727
C         31.72198        54.97707        -0.58571
C         32.96246        57.12786        -0.43309
C         31.75263        56.37733        -0.75879
C         32.96184        58.56810        -0.55165
C         31.81660        59.23443        -0.99700
C         33.02903        61.38577        -0.93181
C         31.82932        60.66842        -1.17362
C         35.23299        48.57230         0.78393
C         35.23134        50.00841         0.85717
C         34.03707        50.74239         0.52594
C         35.19020        52.89746         0.87902
C         34.01462        52.12891         0.40414
C         35.36662        54.30420         0.42483
C         34.14200        55.00306        -0.08162
C         35.24026        57.21119         0.62571
C         34.10847        56.46813        -0.03723
C         35.30836        58.65336         0.19419
C         34.18369        59.30055        -0.27266
C         35.41420        61.45658        -0.34447
C         34.19819        60.74324        -0.50794
C         37.67140        44.28904         0.87586
C         37.65559        45.67395         0.74722
C         36.43005        46.39756         0.75322
C         37.71118        48.47323         1.01965
C         36.40262        47.80389         0.83430
C         37.70464        49.96256         1.22370
C         36.43130        50.69476         1.12051
C         37.74674        52.91857         1.38054
C         36.44933        52.15300         1.25867
C         37.76825        54.38005         1.09399
C         36.58761        55.07275         0.80952
C         37.78153        57.20523         0.63143
C         36.57830        56.48923         0.61844
C         37.80719        58.65391         0.50202
C         36.51790        59.42987         0.65025
C         37.82795        61.49377         0.06986
C         36.59280        60.82517         0.07088
C         40.04081        40.17745         0.42972
C         40.10094        41.37842         1.37618
C         38.87553        42.21405         1.18728
C         40.16579        44.23356         0.62088
C         38.90050        43.55695         0.91383
C         40.14523        45.59249         0.33436
C         38.92530        46.36892         0.52085
C         40.11189        48.52643         0.14609
C         38.92148        47.75313         0.54817
C         40.14132        50.01269         0.41628
C         38.94009        50.74366         0.89846
C         40.38666        52.89849         1.32214
C         39.04269        52.16094         1.39774
C         40.25814        54.35278         0.91639
C         39.03228        55.06027         0.97806
C         40.24956        57.16086         0.59306
C         39.02703        56.47951         0.73010
C         40.25746        58.59826         0.25903
C         38.99097        59.34041         0.34206
C         40.27456        61.48110         0.34526
C         39.04418        60.79489         0.26277
C         42.81737        36.29303        -0.86870
C         42.73572        37.52119        -0.16430
C         41.44194        38.16401        -0.25842
C         42.79600        40.05979         1.46631
C         40.96195        39.16876         0.60601
C         42.68711        41.38709         1.12872
C         41.41292        42.12726         1.06369
C         42.67920        44.08616         0.12480
C         41.39754        43.45081         0.66016
C         42.68135        45.60759         0.11743
C         41.36711        46.24133        -0.30409
C         42.66144        48.46794        -0.10028
C         41.37037        47.77061        -0.20372
C         42.67728        49.91681         0.18702
C         41.46379        50.69059         0.55488
C         42.61011        52.86953         0.21084
C         41.47721        52.18330         0.54656
C         42.67928        54.32416         0.30964
C         41.46410        55.03172         0.61697
C         42.72243        57.15635         0.47642
C         41.47713        56.45492         0.57232
C         42.68563        58.58230         1.00411
C         41.55707        59.34964         0.33656
C         42.73848        61.49874         0.61893
C         41.52092        60.82564         0.47365
C         45.18066        33.48524        -1.58755
C         44.00397        34.23013        -1.53750
C         45.19178        36.04081        -0.36315
C         43.98958        35.51195        -0.92014
C         45.17185        37.31842         0.28139
C         43.93549        38.02524         0.45102
C         45.24981        40.03372         1.20657
C         44.01977        39.21312         1.42855
C         45.23198        41.40034         1.09409
C         43.95279        42.11568         0.95565
C         45.17881        44.24098         0.79239
C         43.93045        43.45648         0.69103
C         45.14146        45.70769         0.49402
C         43.84334        46.32890         0.10864
C         45.12591        48.49162        -0.17424
C         43.86955        47.78377        -0.07684
C         45.14885        49.91817        -0.31041
C         43.86686        50.66063        -0.28899
C         45.11813        52.87081        -0.18101
C         43.81236        52.14871        -0.29278
C         45.07473        54.34339        -0.45982
C         43.83413        55.04630        -0.03173
C         45.09215        57.25036        -0.25709
C         43.87456        56.46737         0.10541
C         45.13891        58.67837         0.16767
C         44.06207        59.32273         1.04353
C         45.19722        61.45988         0.49189
C         43.98638        60.81020         0.65554
C         46.36793        33.99659        -1.06479
C         47.61895        35.86080        -0.03379
C         46.40355        35.28630        -0.46549
C         47.65394        37.18303         0.46568
C         46.42547        37.86884         0.71178
C         47.80250        39.99565         1.11333
C         46.48880        39.24285         1.22950
C         47.73146        41.44464         0.86360
C         46.49222        42.12915         0.90377
C         47.66527        44.24962         0.46937
C         46.47322        43.53161         0.71354
C         47.63497        45.69627         0.20714
C         46.40664        46.38940         0.14514
C         47.59970        48.45877        -0.42174
C         46.38052        47.77685        -0.15706
C         47.54962        49.87623        -0.80977
C         46.31742        50.62527        -0.54645
C         47.64165        52.83333        -0.66193
C         46.37405        52.09930        -0.41173
C         47.65721        54.28957        -0.51442
C         46.38044        55.06322        -0.64142
C         47.61769        57.19594         0.10918
C         46.44045        56.60424        -0.65293
C         47.65682        58.57467         0.41246
C         46.45278        59.34019         0.34151
C         47.69429        61.40679         0.61501
C         46.45407        60.73937         0.51271
C         48.91541        37.86031         0.55581
C         50.19213        39.97934         0.49302
C         49.00754        39.25113         0.69494
C         50.20072        41.40559         0.44267
C         48.92557        42.13097         0.53570
C         50.12105        44.24754         0.00739
C         48.88202        43.52752         0.36112
C         50.12440        45.71978         0.24670
C         48.84177        46.41869         0.01708
C         50.10769        48.53677        -0.43873
C         48.84774        47.79990        -0.29483
C         50.10244        49.91651        -0.67869
C         48.84279        50.64796        -0.93632
C         50.10429        52.77670        -0.52210
C         48.81154        52.11895        -0.76143
C         50.12889        54.24451        -0.20927
C         48.83344        54.96993        -0.30449
C         50.13580        57.04694         0.51206
C         48.81503        56.36317         0.20770
C         50.09543        58.50764         0.77570
C         48.90071        59.26150         0.74912
C         50.11242        61.53137         0.70307
C         48.91600        60.71832         0.75743
C         51.40412        42.08812         0.28676
C         52.69133        44.30923         0.08811
C         51.45013        43.52050         0.00025
C         52.69647        45.69263        -0.00697
C         51.42130        46.45117         0.14797
C         52.58688        48.50923        -0.51024
C         51.38397        47.87111        -0.25737
C         52.57551        49.89719        -0.98890
C         51.32488        50.65111        -0.83066
C         52.55601        52.78178        -1.00968
C         51.33994        52.04170        -0.87702
C         52.43010        54.26222        -1.31616
C         51.45938        54.98754        -0.33920
C         52.56900        57.44573        -0.14294
C         51.45958        56.45109         0.05712
C         52.56904        58.59397         0.65648
C         51.33556        59.03258         1.19762
C         52.66058        61.66830         0.89958
C         51.36250        61.16331         1.18797
C         53.89286        46.45214        -0.11551
C         55.06537        48.61064        -0.32325
C         53.87195        47.85040        -0.32534
C         55.12242        50.01165        -0.57350
C         53.88690        50.68352        -1.05469
C         55.04648        52.90771        -1.08239
C         53.78748        52.15199        -1.00051
C         54.98891        54.39603        -1.06927
C         53.77823        54.92076        -1.40752
C         55.02512        57.45732        -0.37877
C         53.78229        57.06803        -0.80768
C         55.09520        58.69077         0.45460
C         53.81961        59.38017         0.89753
C         55.08947        61.54130         0.96889
C         53.83980        60.88367         0.97205
C         56.26468        50.77108        -0.35202
C         57.48985        53.03243        -0.41980
C         56.35687        52.17657        -0.76439
C         57.50982        54.42147        -0.60670
C         56.26768        55.18201        -1.00053
C         57.49569        57.30712        -0.09672
C         56.26191        56.69932        -0.72362
C         57.58143        58.79935        -0.10630
C         56.29388        59.53469         0.18149
C         57.57977        61.53025         0.82057
C         56.33813        60.90794         0.71588
C         58.72502        55.10350        -0.39730
C         60.02933        57.29477        -0.00166
C         58.79552        56.52151        -0.05795
C         60.04362        58.68016         0.27850
C         58.83466        59.44728         0.28134
C         60.06361        61.45305         0.89801
C         58.82040        60.82004         0.63848
C         61.26719        59.37353         0.52254
C         61.26014        60.73339         0.81557
O         51.35491        60.07510         2.10530
O         35.49160        52.66076         2.27520
O         44.54773        59.33479         2.35641
O         56.45545        56.17574        -2.06062
O         42.32084        50.14056         1.61738
O         41.08901        58.87690        -0.95082
O         43.62062        51.41284        -1.54094
O         50.80217        46.16471         1.47084
O         38.38633        52.47581         2.64983
O         45.88752        52.49564         0.98653
O         55.89538        52.41759        -2.15962
O         51.96708        55.37504         0.95057
O         54.69998        58.66943         1.85126
O         47.31495        39.51768         2.40989
O         50.17252        53.27640         0.88437
O         45.13230        45.23440         1.89674
O         40.50382        48.32165        -1.27198
O         53.67217        56.21981        -1.91007
O         53.28588        50.10464        -2.25460
O         41.70643        39.26114         1.82276
O         44.75001        58.34748        -1.19399
O         49.44619        56.33330         1.56530
O         56.80676        59.42012        -1.18226
O         37.85794        49.06943         2.37723
O         50.68954        43.85920        -1.27008
O         35.17090        54.44936        -1.02363
O         39.26316        50.71869        -0.53365
O         48.14704        50.17096        -2.14058
O         45.57198        54.63782        -1.80718
O         57.89069        56.76055         1.16070
O         40.90560        52.92522         2.68514
H         40.12861        53.02642         3.28362
O         36.33296        59.61389         2.11352
H         35.63011        60.28868         2.23305
O         41.23845        45.93307        -1.73383
H         40.70146        46.66600        -2.12437
O         42.72304        43.71286        -1.29927
H         42.10921        44.32413        -1.77755
O         40.05050        40.99049         2.76554
H         40.67682        40.24102         2.89461
O         44.14878        38.58820         2.74418
H         43.26293        38.23057         2.97200
O         42.25927        58.44811         2.37869
H         43.07423        58.70511         2.90879
O         34.86366        57.26304         2.05603
H         35.44905        57.94900         2.46641
O         51.76358        54.37758        -2.59977
H         52.33718        53.97911        -3.28801
O         46.72917        56.96667        -2.02514
H         46.04600        56.52941        -2.58216
H         29.68162        56.53506        -1.39307
H         28.53816        58.64512        -1.94342
H         30.65889        62.40768        -1.73765
H         28.58342        61.11559        -2.19800
H         31.95880        52.29201        -0.29090
H         30.77448        54.44067        -0.74556
H         33.04120        62.47480        -1.08960
H         34.27050        48.06028         0.63284
H         33.14064        50.16806         0.24761
H         35.44964        62.51663        -0.63989
H         36.72857        43.74279         1.02857
H         35.48404        45.83536         0.73983
H         37.85778        62.56833        -0.16838
H         39.48070        40.25992        -0.51187
H         37.91063        41.72296         1.38554
H         40.25737        62.58233         0.33751
H         41.90628        35.90414        -1.34845
H         40.79069        37.82991        -1.07988
H         42.74035        62.60021         0.66934
H         45.17623        32.49069        -2.05511
H         43.07442        33.82992        -1.96664
H         45.21945        62.54556         0.30359
H         47.29574        33.41011        -1.12637
H         48.56099        35.31294        -0.18270
H         47.70600        62.50691         0.63282
H         49.82357        37.28933         0.30950
H         51.13015        39.43933         0.29467
H         50.01611        62.50728         0.20300
H         52.35085        41.53042         0.34717
H         53.64770        43.76526         0.12259
H         52.76104        62.71889         0.58670
H         54.86097        45.93064        -0.07679
H         56.00646        48.09168        -0.08664
H         55.09510        62.62645         1.15225
H         57.14338        50.30892         0.12241
H         58.38831        52.55250        -0.00355
H         57.62928        62.57658         1.15694
H         59.64655        54.50943        -0.30580
H         60.98258        56.77046        -0.16341
H         60.08061        62.51824         1.16851
H         62.21429        58.81667         0.49615
H         62.21174        61.24852         1.00867
