         404
 CSIRO Nanostructure Databank - Neutral Graphene Oxide Data Set
C          1.77118         2.00568        -2.39199
C          1.73927         3.41343        -2.47603
C          2.96402         1.35094        -2.17203
C          2.89828         4.17435        -2.33548
C          1.59100         6.38217        -2.28816
C          1.56604         7.72771        -2.10081
C          2.85187         5.65689        -2.46758
C          2.75416         8.50444        -1.83259
C          1.46705        10.64486        -1.64057
C          1.43406        12.04868        -1.51822
C          2.63508         9.90029        -1.47532
C          2.56713        12.81067        -1.23238
C          1.45822        15.00688        -1.67315
C          1.51461        16.38338        -1.78352
C          2.61647        14.24805        -1.36799
C          2.75237        17.06505        -1.67542
C          2.81328        18.50331        -1.84221
C          4.17174         2.09286        -2.02939
C          4.14655         3.52058        -2.10897
C          5.38998         1.43299        -1.77027
C          5.37637         4.23861        -1.91775
C          4.13314         6.45135        -2.17319
C          3.99807         7.85519        -1.73575
C          5.33809         5.70082        -1.76827
C          5.16962         8.54008        -1.25880
C          3.80617        10.57178        -0.90122
C          3.77396        12.11274        -0.77667
C          5.11842         9.91334        -0.94173
C          5.05727        12.83221        -0.68318
C          3.85626        14.93325        -1.17255
C          3.92084        16.33410        -1.38511
C          5.05233        14.21144        -0.79669
C          5.25924        17.01044        -1.57440
C          3.97953        19.19339        -1.69339
C          5.22407        18.51591        -1.42661
C          6.62060         2.11301        -1.68249
C          6.59800         3.55161        -1.79647
C          7.74947         1.28733        -1.30970
C          7.81856         4.48035        -1.72126
C          6.38147         6.38077        -1.17832
C          6.39193         7.81587        -1.03949
C          7.51969         5.53975        -0.64117
C          7.57134         8.51386        -0.70744
C          6.30106        10.64700        -0.64254
C          6.28385        12.07467        -0.48366
C          7.55535         9.95185        -0.61251
C          7.49858        12.76053        -0.27830
C          6.18139        15.01669        -0.19358
C          6.39748        16.37302        -0.82669
C          7.47235        14.21593        -0.00036
C          7.56660        17.08325        -0.63722
C          6.38557        19.20408        -1.19000
C          7.62026        18.52245        -0.88281
C          9.09694         1.64192        -1.43982
C          9.12812         3.79349        -1.50353
C         10.23054         1.18152        -0.76358
C         10.13595         4.19467        -0.66232
C          8.76085         6.33485        -0.23782
C          8.81034         7.80184        -0.45119
C         10.05480         5.59250        -0.14791
C         10.01952         8.46850        -0.39430
C          8.76683        10.67358        -0.50212
C          8.75233        12.07959        -0.33676
C         10.05387         9.92902        -0.78609
C          9.99720        12.83743        -0.31844
C          8.77577        14.96340         0.00984
C          8.78634        16.42109        -0.23771
C         10.03386        14.21737        -0.19600
C          9.99059        17.10623        -0.18898
C          8.79836        19.21672        -0.68765
C         10.02078        18.54990        -0.33592
C         11.41412         1.99437        -0.59962
C         11.36203         3.43486        -0.48953
C         12.64113         1.34428        -0.36262
C         12.52662         4.15063        -0.06696
C         11.32838         6.33934        -0.17542
C         11.29255         7.78526        -0.22692
C         12.49532         5.61163        -0.04268
C         12.47871         8.52323        -0.12567
C         11.28382        10.64713        -0.30049
C         11.27064        12.10564        -0.47155
C         12.46333         9.96949        -0.05424
C         12.57590        12.84997        -0.25041
C         11.26660        14.97095        -0.08399
C         11.23324        16.39042         0.01631
C         12.51713        14.30279         0.01824
C         12.42342        17.12106         0.25301
C         11.20200        19.24383        -0.10813
C         12.41683        18.56536         0.23849
C         13.82215         2.05150        -0.03658
C         13.74168         3.46729         0.15569
C         15.06822         1.39023         0.11371
C         14.92570         4.16636         0.68704
C         13.77621         6.33500        -0.00137
C         13.78092         7.84503        -0.07336
C         14.92402         5.68358         0.67539
C         14.96105         8.56423         0.45921
C         13.69752        10.68302         0.27735
C         13.72593        12.06624         0.23125
C         14.89573         9.92846         0.63112
C         14.96761        12.81138         0.50352
C         13.67697        15.01737         0.34542
C         13.64173        16.42829         0.50220
C         14.96793        14.32070         0.50626
C         14.82878        17.14726         0.85390
C         13.59893        19.25796         0.50796
C         14.80980        18.57834         0.84338
C         16.27443         2.08371         0.39234
C         16.24040         3.49601         0.68849
C         17.51211         1.41194         0.42518
C         17.41407         4.21748         0.91181
C         16.17628         6.43395         0.81508
C         16.17141         7.82215         0.79081
C         17.35233         5.66884         1.37897
C         17.37724         8.55305         1.14347
C         16.04702        10.62791         1.24993
C         16.05189        12.12966         1.25286
C         17.35132         9.94056         1.35411
C         17.29843        12.87323         1.50390
C         16.07825        15.01747         1.18047
C         16.01553        16.45114         1.25421
C         17.22131        14.28301         1.58449
C         17.14905        17.19930         1.65418
C         16.00288        19.28728         1.10771
C         17.19012        18.61490         1.47512
C         18.71531         2.11403         0.66680
C         18.67258         3.53950         0.87036
C         19.96555         1.45438         0.68301
C         19.89685         4.25361         0.99147
C         18.62295         6.44084         1.14201
C         18.62513         7.83567         1.21007
C         19.85876         5.72313         0.91192
C         19.84996         8.57566         1.43932
C         18.53584        10.67918         1.64428
C         18.49904        12.13366         1.78392
C         19.79061         9.99009         1.73398
C         19.67319        12.82103         2.11225
C         18.33358        15.00497         2.23523
C         18.32607        16.50749         2.19095
C         19.63498        14.25329         2.45349
C         19.64450        17.24850         2.17976
C         18.44169        19.31483         1.54509
C         19.65994        18.66483         1.73731
C         21.16647         2.15619         0.91772
C         21.13421         3.59266         1.05977
C         22.40643         1.48354         0.97930
C         22.36285         4.31175         1.32851
C         21.17535         6.50150         1.10764
C         21.08085         7.90754         1.50844
C         22.37620         5.72640         1.43852
C         22.29907         8.58742         1.84048
C         20.98432        10.66359         2.11013
C         20.89602        12.09135         2.47347
C         22.25133        10.01462         2.12853
C         22.13712        12.87543         2.87040
C         20.92282        15.00028         2.45040
C         20.88993        16.43358         2.02859
C         22.11464        14.34436         2.58094
C         22.17175        17.18803         1.85180
C         20.90824        19.33277         1.63517
C         22.13991        18.66904         1.77057
C         23.60046         2.15481         1.33969
C         23.56577         3.59136         1.57911
C         24.81772         1.46605         1.36750
C         24.74307         4.29564         1.93706
C         23.55496         6.43878         1.77180
C         23.50345         7.87382         1.87524
C         24.77088         5.70871         1.98697
C         24.79803         8.62648         1.85385
C         23.45226        10.72116         2.40769
C         23.46874        12.11205         3.04421
C         24.70853        10.06090         2.32307
C         24.70090        12.89783         2.63169
C         23.39644        15.10836         2.63271
C         23.43740        16.51876         2.19197
C         24.70781        14.36833         2.76735
C         24.63259        17.20868         2.03368
C         23.36997        19.33829         1.70403
C         24.60514        18.63976         1.73481
C         25.98862         2.04460         2.00611
C         25.93387         3.54487         2.37792
C         27.30899         1.46260         1.78538
C         27.23383         4.25937         2.62624
C         26.01186         6.39853         2.27734
C         25.93979         7.85873         2.48210
C         27.22444         5.74226         2.47616
C         27.22225         8.62083         2.71131
C         25.90164        10.77786         2.43114
C         25.88209        12.22044         2.40501
C         27.24473        10.14500         2.72195
C         27.10765        12.92033         2.00770
C         26.03822        15.11846         2.60852
C         25.90200        16.52541         2.05413
C         27.11718        14.31348         1.91442
C         27.05378        17.18831         1.64951
C         25.80815        19.31899         1.51534
C         27.04264        18.62468         1.42366
C         28.51437         2.06649         2.06273
C         28.54657         3.48207         2.60225
C         29.67837         1.31568         1.60944
C         29.77655         4.31928         2.40619
C         28.47376         6.48983         2.45129
C         28.46852         7.88084         2.48583
C         29.73321         5.77239         2.23312
C         29.68437         8.67975         2.21183
C         28.36339        10.76884         1.92420
C         28.27746        12.16545         1.65529
C         29.55148        10.07366         1.71673
C         29.42060        12.83679         1.13654
C         28.24871        14.99562         1.37964
C         28.26930        16.45488         1.35087
C         29.35587        14.24341         0.93673
C         29.41330        17.15046         0.98671
C         28.23138        19.30200         1.13512
C         29.46310        18.60324         0.95325
C         30.97696         1.54943         2.01367
C         31.00312         3.73852         2.52388
C         32.22628         1.09339         1.50765
C         32.26061         4.31804         2.01650
C         30.89900         6.45612         1.93564
C         30.94986         7.92695         1.88515
C         32.19561         5.77619         1.71143
C         31.99717         8.58234         1.07152
C         30.69095        10.71854         1.13139
C         30.62251        12.10368         0.84651
C         31.89187         9.96753         0.80944
C         31.79056        12.79357         0.34404
C         30.50589        14.91783         0.32469
C         30.54928        16.42418         0.39872
C         31.77734        14.19475         0.15777
C         31.88971        17.06102         0.40455
C         30.64158        19.27572         0.63112
C         31.92577        18.58153         0.50280
C         33.35741         1.95365         1.41217
C         33.20062         3.44493         1.21980
C         34.60535         1.40211         1.12007
C         34.29075         4.19162         0.48597
C         33.20402         6.41761         0.83109
C         33.10329         7.82688         0.59139
C         34.29344         5.68253         0.37169
C         34.15521         8.47316        -0.12872
C         32.98894        10.63201         0.18028
C         32.96055        12.05115         0.00929
C         34.11882         9.88822        -0.26734
C         34.10061        12.72825        -0.51018
C         32.93685        14.90140        -0.26061
C         33.00206        16.34316        -0.24940
C         34.10642        14.15080        -0.59548
C         34.12039        17.04683        -0.71966
C         33.13031        19.22091        -0.01391
C         34.21310        18.51405        -0.53080
C         35.73346         2.16889         0.68394
C         35.58282         3.51078         0.31527
C         36.99094         1.49383         0.49084
C         36.71532         4.29428        -0.18146
C         35.32951         6.31924        -0.39693
C         35.24887         7.71474        -0.65410
C         36.47915         5.60048        -0.84819
C         36.29094         8.35177        -1.40638
C         35.23209        10.54506        -0.87726
C         35.24630        11.99167        -0.94397
C         36.26174         9.77436        -1.45603
C         36.38621        12.69347        -1.39030
C         35.25604        14.83794        -1.07110
C         35.20142        16.25221        -1.26020
C         36.41758        14.10670        -1.47259
C         36.24663        16.81020        -2.01824
C         35.43659        19.26993        -0.71543
C         36.44337        18.90997        -1.61811
C         38.05805         2.10341        -0.12235
C         38.01075         3.54615        -0.44784
C         39.24478         1.37337        -0.49415
C         38.83799         4.04443        -1.56093
C         37.42182         6.15644        -1.74655
C         37.31873         7.56961        -2.06891
C         38.50681         5.25680        -2.23359
C         38.26798         8.27223        -2.90640
C         37.29862        10.51154        -2.19980
C         37.56892        11.91966        -1.79290
C         38.34605         9.75783        -2.92881
C         38.76701        12.61538        -2.38399
C         37.57270        14.78671        -2.00424
C         37.49839        16.20048        -2.22117
C         38.70437        14.08796        -2.49439
C         38.65370        16.96673        -2.62042
C         37.81465        19.19915        -1.66293
C         38.77341        18.38936        -2.37275
C         40.13366         1.91795        -1.36654
C         39.87601         3.18817        -2.01712
C         40.62797         3.52759        -3.15639
C         39.19806         5.44786        -3.45421
C         39.07725         7.69637        -3.89077
C         40.25488         4.63957        -3.89548
C         40.15394         8.37182        -4.51056
C         39.57666        10.45724        -3.40161
C         39.69677        11.86176        -3.25912
C         40.45721         9.69043        -4.19973
C         40.68303        12.63272        -3.92623
C         39.74038        14.78101        -3.15853
C         39.78604        16.23814        -3.10258
C         40.73308        14.01467        -3.83798
C         40.96190        16.93254        -3.45498
C         40.00854        19.01289        -2.68140
C         41.06188        18.30964        -3.25416
O         21.46648        16.56640         0.67996
O         36.01131        18.03310        -2.64052
O          3.54511        11.23876         0.37693
O         14.58312         4.95302         1.90784
O         30.74950         8.54202         3.21363
O         15.61248        11.39139         2.44315
O         18.69158        14.50907         3.55766
O         37.15473        10.34637        -3.65707
O         25.66792         2.53348         3.36624
O         20.63805         6.23358        -0.23053
O         37.88056         4.39684         0.73269
O         32.86843         5.26441         2.95162
O          9.34213         2.71407        -2.34994
O         26.36605         8.18847         3.83426
O         14.11377         7.00841        -1.25312
O         32.22126        17.67768         1.67003
O         31.12460         2.47099         3.06638
O         15.43529        13.54778        -0.67584
O         21.21020        12.44109         3.90550
O          3.68882         6.18553        -3.54685
O         38.79141         6.41703        -4.37320
O         38.76431        12.11921        -0.97727
O         24.01580        14.86556         3.96733
O         33.09474         3.65919        -0.23528
O         27.87068         3.76595         3.85494
O         12.11419        12.52233        -1.60825
O         30.19527        15.76086        -0.85711
O          8.10674        14.56560         1.28461
O          9.27104         5.87986         1.07616
O         18.90439        17.07552         3.41612
O         27.53024        10.52894         4.09985
H         26.95717         9.97222         4.67433
O          7.94245         5.16807        -2.99528
H          8.13719         4.49325        -3.67988
O          5.67186        15.34942         1.13916
H          6.45224        15.32002         1.74517
O          7.02719         4.84109         0.52064
H          7.68633         4.98398         1.24327
O         26.56329        15.30195         3.95943
H         25.78396        15.38675         4.55671
O         23.63291        11.87372         4.47087
H         22.72672        11.81672         4.85580
O         25.18990         8.70215         0.43086
H         24.41896         9.03664        -0.07521
O         10.16647         9.94442        -2.25859
H         11.08594         9.69447        -2.49230
O          5.57355        16.77815        -3.00589
H          4.89203        17.25257        -3.52887
O         17.14766         5.60088         2.83207
H         16.22101         5.28352         2.96419
H          0.83836         1.43756        -2.51090
H          0.77706         3.90344        -2.67690
H          2.99926         0.25404        -2.10842
H          0.64312         5.82592        -2.29519
H          0.58913         8.22230        -2.01373
H          0.54991        10.15230        -1.99129
H          0.49186        12.55184        -1.77573
H          0.49166        14.50211        -1.80292
H          0.60165        16.95796        -1.99625
H          1.87518        19.04031        -2.04499
H          5.38094         0.33884        -1.65439
H          3.98560        20.29212        -1.75380
H          7.51115         0.32065        -0.84029
H          6.38212        20.30532        -1.19470
H         10.20476         0.20198        -0.26396
H          8.81098        20.31062        -0.80803
H         12.68762         0.24925        -0.44909
H         11.21264        20.34111        -0.18879
H         15.10945         0.30141        -0.03642
H         13.60093        20.35772         0.47649
H         17.54646         0.32925         0.23580
H         16.01187        20.38301         1.01216
H         20.00080         0.36578         0.52964
H         18.44496        20.38912         1.30665
H         22.43691         0.39692         0.81133
H         20.91024        20.41542         1.43816
H         24.87756         0.44555         0.96078
H         23.38214        20.43046         1.57215
H         27.32655         0.48089         1.28617
H         25.79078        20.40551         1.34356
H         29.48921         0.50937         0.88446
H         28.21623        20.39620         1.02136
H         32.32239         0.07135         1.10927
H         30.61766        20.36542         0.48104
H         34.73519         0.31431         1.22239
H         33.17854        20.32038         0.00488
H         37.05286         0.42651         0.75045
H         35.58690        20.14470        -0.06478
H         39.39491         0.36208        -0.08987
H         38.20036        20.06960        -1.11044
H         41.02426         1.35414        -1.67956
H         41.44253         2.87223        -3.49385
H         40.74769         4.88188        -4.84564
H         40.77106         7.81936        -5.23118
H         41.35244        10.15060        -4.63901
H         41.43613        12.12658        -4.54622
H         41.53307        14.53382        -4.38303
H         41.83232        16.38785        -3.84378
H         40.12121        20.08754        -2.47792
H         41.99356        18.83211        -3.51147
