         732
 CSIRO Nanostructure Databank - Neutral Graphene Oxide Data Set
C         23.08211        24.52580         0.09481
C         21.93467        25.21037         0.52162
C         23.02157        27.35149         0.11366
C         21.89764        26.59579         0.52796
C         22.99069        28.79497         0.06248
C         21.80004        29.53547         0.31803
C         22.92761        31.65125        -0.15237
C         21.76480        30.90572         0.19829
C         22.91137        33.08031        -0.27704
C         21.66597        33.81274        -0.35363
C         22.81223        35.99026        -0.34133
C         21.60943        35.16284        -0.50067
C         22.83209        37.43845        -0.66831
C         21.64914        38.17740        -0.77601
C         22.88245        40.27459        -0.87732
C         21.67367        39.57093        -0.90590
C         22.92406        41.73973        -0.91437
C         21.75964        42.50149        -1.32844
C         22.81464        44.61279        -0.63921
C         21.72349        43.85658        -1.27248
C         22.88281        46.10784        -0.79901
C         21.66354        46.88902        -0.55095
C         22.98976        48.89311        -0.11766
C         21.74285        48.22801        -0.28827
C         25.60578        23.16461        -0.50067
C         25.41749        24.49701        -0.75868
C         24.22505        25.22099        -0.31396
C         25.35925        27.40378        -0.66203
C         24.20345        26.65632        -0.29730
C         25.36503        28.80251        -0.61083
C         24.16509        29.51557        -0.28097
C         25.34274        31.65243        -0.69659
C         24.14615        30.94294        -0.35946
C         25.33740        33.07580        -0.72569
C         24.12969        33.77129        -0.47093
C         25.36363        35.98189        -0.72307
C         24.14625        35.24026        -0.35253
C         25.33358        37.39790        -0.80219
C         24.08215        38.11467        -0.74559
C         25.35340        40.22780        -0.71839
C         24.10394        39.53850        -0.78672
C         25.33758        41.63928        -0.21371
C         24.09924        42.39948        -0.61850
C         25.39324        44.57207        -0.26240
C         24.09628        43.84829        -0.37210
C         25.40623        45.95022        -0.23105
C         24.21899        46.78936        -0.56036
C         25.45228        48.87672         0.15369
C         24.21145        48.22399        -0.15935
C         25.54637        50.16484         0.70578
C         27.67784        23.10389        -1.76204
C         26.71227        22.44425        -1.07587
C         27.78551        24.58426        -1.92667
C         26.46499        25.25147        -1.50201
C         27.81118        27.41379        -1.36288
C         26.49913        26.72946        -1.31958
C         27.80137        28.77891        -1.18379
C         26.56788        29.52130        -0.95445
C         27.72466        31.67078        -1.44746
C         26.53981        30.91801        -0.98256
C         27.73947        33.12943        -1.24295
C         26.57719        33.81478        -0.93524
C         27.76436        36.00991        -1.12206
C         26.57232        35.27521        -0.90219
C         27.76904        37.42100        -1.19521
C         26.54438        38.12112        -1.01703
C         27.81929        40.26693        -0.98709
C         26.56001        39.55116        -0.91210
C         27.84712        41.68219        -0.72394
C         26.62442        42.40170        -0.42990
C         27.90151        44.44925         0.02343
C         26.61525        43.77488        -0.20941
C         27.93061        45.92892         0.15011
C         26.64583        46.68880         0.09210
C         27.98789        48.77011         0.33339
C         26.72308        48.16682        -0.23826
C         28.00940        50.07209         0.85844
C         26.76773        50.76197         1.01658
C         30.91637        20.09674        -0.98103
C         29.92065        20.64084        -1.75701
C         30.54404        22.95690        -1.10005
C         29.71546        22.03939        -1.76402
C         30.24711        24.44017        -0.72790
C         29.04324        25.21450        -1.30757
C         30.29708        27.33201        -1.22074
C         29.05607        26.61352        -1.30025
C         30.26764        28.77389        -1.66592
C         29.09966        29.53160        -1.03929
C         30.31151        31.69512        -1.63954
C         29.03010        30.94507        -1.59973
C         30.28869        33.11579        -1.60517
C         29.04557        33.79807        -1.19614
C         30.25185        36.04733        -1.55098
C         29.05408        35.32078        -1.11667
C         30.19827        37.44792        -1.69469
C         29.00056        38.14319        -1.42459
C         30.26133        40.29038        -1.45337
C         29.00830        39.58105        -1.32080
C         30.28434        41.69251        -1.20652
C         29.08208        42.35622        -0.82752
C         30.38068        44.53131        -0.70838
C         29.18137        43.74249        -0.35948
C         30.37218        45.96478        -0.48557
C         29.19506        46.63912        -0.10131
C         30.45051        48.68498         0.33752
C         29.19932        48.03159         0.17885
C         30.49068        49.98252         0.95095
C         29.28170        50.64337         1.28202
C         30.57554        52.32315         2.49565
C         29.36432        51.84604         2.03398
C         32.96521        19.04616         0.83126
C         32.96574        20.38578         0.35142
C         31.84379        20.95993        -0.35569
C         32.84826        23.19817        -0.13909
C         31.71750        22.37615        -0.50133
C         32.76121        24.65361        -0.34038
C         31.54440        25.26234        -0.71659
C         32.74592        27.44705        -0.97274
C         31.52129        26.67465        -0.97840
C         32.75951        28.85902        -1.25371
C         31.55094        29.54635        -1.47164
C         32.79005        31.68676        -1.75490
C         31.51658        30.95901        -1.62922
C         32.75478        33.21043        -1.82642
C         31.46284        33.89656        -1.69357
C         32.70175        36.06075        -1.81681
C         31.46096        35.32182        -1.69092
C         32.71152        37.45139        -1.94957
C         31.41623        38.18305        -2.20952
C         32.70474        40.32418        -1.82073
C         31.47495        39.62637        -1.77124
C         32.72496        41.73480        -1.60517
C         31.51722        42.41672        -1.30970
C         32.73575        44.59645        -1.48363
C         31.50516        43.85449        -1.15319
C         32.78715        46.07985        -1.17334
C         31.58544        46.71382        -0.58760
C         32.89173        48.78432        -0.03872
C         31.62748        48.02205        -0.08394
C         32.97165        49.91329         0.90974
C         31.75724        50.52607         1.34830
C         33.07502        52.10785         2.70891
C         31.80085        51.67159         2.18590
C         33.15999        53.13726         3.68374
C         35.30234        19.23453         1.50997
C         34.07716        18.50982         1.44359
C         35.32495        20.56805         1.03315
C         34.11504        21.18049         0.54039
C         35.28951        23.36310         0.53457
C         34.04690        22.57370         0.21519
C         35.29310        24.74883        -0.13850
C         33.94268        25.44418        -0.21134
C         35.20220        27.55689        -0.61931
C         33.95529        26.79899        -0.60695
C         35.23594        28.91892        -0.99976
C         34.01560        29.60200        -1.22886
C         35.23660        31.77640        -1.18615
C         34.02857        31.00673        -1.37340
C         35.11098        33.25785        -0.83963
C         33.95508        33.96942        -1.47443
C         35.17733        36.08664        -1.61670
C         33.94405        35.35607        -1.60320
C         35.19124        37.46697        -1.93692
C         33.94386        38.17869        -2.00898
C         35.20041        40.30183        -2.16321
C         33.96216        39.60625        -2.04303
C         35.22506        41.73653        -1.98990
C         33.98724        42.46309        -1.69987
C         35.24138        44.65976        -1.88262
C         34.00058        43.84250        -1.59700
C         35.28233        45.99991        -1.16365
C         34.12065        46.68848        -0.92469
C         35.43136        48.60435         0.07801
C         34.16365        48.09049        -0.45527
C         35.44646        49.74024         0.90975
C         34.21896        50.38585         1.34043
C         35.53232        51.88702         2.82642
C         34.27482        51.46873         2.28678
C         35.57824        52.87143         3.84495
C         34.36593        53.48771         4.25173
C         37.74400        16.71522         2.89935
C         36.55322        17.34362         2.57615
C         37.78011        19.26698         1.70402
C         36.53464        18.61575         1.95423
C         37.78150        20.58851         1.13654
C         36.58288        21.24182         0.90137
C         37.82883        23.38943         0.45723
C         36.57489        22.57539         0.18901
C         37.78600        24.88829         0.16123
C         36.42832        25.59749         0.49971
C         37.35556        27.94217         0.36398
C         36.36292        27.01764        -0.02267
C         37.64795        29.13907        -0.27228
C         36.55768        29.64820        -1.19290
C         37.75053        31.90769        -1.11147
C         36.44752        31.14667        -1.04944
C         37.63415        33.31184        -0.49529
C         36.39451        34.02699        -0.96698
C         37.64196        36.06087        -1.53033
C         36.39466        35.36073        -1.33148
C         37.63116        37.32813        -2.18032
C         36.42569        38.15002        -2.23490
C         37.64580        40.32872        -2.68242
C         36.43249        39.56564        -2.41603
C         37.68508        41.84027        -2.57155
C         36.43698        42.45747        -2.00772
C         37.74121        44.53075        -1.60999
C         36.50558        43.85148        -1.74900
C         37.74550        45.93898        -1.28351
C         36.57446        46.64233        -0.97036
C         37.85699        48.56973        -0.01507
C         36.63060        47.94581        -0.32221
C         37.90440        49.68441         0.87440
C         36.69939        50.23280         1.39257
C         38.00751        51.74159         2.83424
C         36.75484        51.29374         2.34758
C         38.05869        52.75148         3.86915
C         36.85079        53.24493         4.43179
C         38.15588        54.43676         6.10488
C         36.93073        54.09141         5.56294
C         40.27511        15.34699         3.58483
C         40.31582        16.58876         2.74969
C         38.98404        17.31554         2.59005
C         40.31156        19.21846         1.70605
C         38.99676        18.58205         1.99608
C         40.35087        20.58187         1.08043
C         39.04784        21.21264         0.56638
C         40.29806        23.41357         0.62943
C         39.02195        22.72951         0.63963
C         40.27786        24.83963         0.24612
C         39.06048        25.57626         0.61911
C         40.31374        27.73830         0.44478
C         39.19774        26.91477         0.85724
C         40.15582        29.13101         0.14791
C         38.92972        29.79643        -0.16561
C         40.11209        31.97164        -0.33431
C         38.97252        31.20770        -0.51673
C         40.13339        33.40739        -0.54719
C         38.91767        34.07159        -0.72204
C         40.08713        36.06583        -1.51292
C         38.86895        35.41281        -1.22553
C         40.08596        37.14152        -2.41426
C         38.84013        37.68350        -2.81072
C         40.10069        40.49859        -3.23265
C         38.80092        39.83439        -3.25666
C         40.21107        41.81036        -2.61509
C         38.98463        42.33051        -1.88239
C         40.23056        44.47939        -1.57586
C         39.00071        43.83824        -1.72465
C         40.29207        45.88018        -1.30427
C         39.03955        46.63539        -1.26362
C         40.38097        48.53513        -0.12941
C         39.09295        48.05336        -0.60960
C         40.38461        49.91847         0.48003
C         39.15798        50.23094         1.29674
C         40.53220        51.51946         2.97779
C         39.21379        51.18487         2.30380
C         40.54355        52.94423         3.52612
C         39.30985        53.23116         4.35169
C         40.67797        54.40560         6.13942
C         39.36271        54.05660         5.47585
C         40.72351        55.78870         6.74153
C         42.45626        15.78074         4.59894
C         41.35501        14.96731         4.36941
C         42.47372        17.21811         4.18086
C         41.41414        17.55185         3.15367
C         42.66673        19.58542         2.56347
C         41.47344        18.76888         2.52076
C         42.67166        20.88066         1.97523
C         41.54607        21.42226         1.34784
C         42.76043        23.56090         0.89785
C         41.51110        22.80771         0.94506
C         42.79394        24.90748         0.46280
C         41.54582        25.60656         0.15457
C         42.77178        27.77913         0.10690
C         41.53420        27.07248         0.23163
C         42.73451        29.17629         0.02245
C         41.42147        29.83695        -0.32142
C         42.67332        32.08182        -0.07189
C         41.38923        31.30935         0.01090
C         42.63850        33.50535        -0.47460
C         41.40210        34.11568        -0.63583
C         42.63184        36.28415        -1.33693
C         41.35560        35.54771        -0.98824
C         42.56345        37.42066        -2.29962
C         41.34129        37.67264        -2.88897
C         42.62244        40.35802        -3.48369
C         41.26239        39.81258        -3.54145
C         42.64725        41.89231        -3.12939
C         41.41059        42.46803        -2.54284
C         42.75222        44.51599        -1.83769
C         41.51785        43.66522        -1.59553
C         42.74867        45.92070        -1.46581
C         41.51620        46.56017        -1.10248
C         42.83185        48.51348        -0.28938
C         41.55273        47.89668        -0.54004
C         42.88455        49.82696         0.41158
C         41.68353        50.29535         1.13844
C         43.02977        51.83894         2.54507
C         41.76245        51.22602         2.13621
C         43.05199        52.81914         3.54616
C         41.85401        53.26168         4.21731
C         43.17153        54.65093         5.79400
C         41.90873        54.11894         5.29842
C         43.15204        55.69381         6.71149
C         41.92073        56.32009         7.09622
C         45.03259        17.15673         4.14431
C         43.83261        17.76820         3.76957
C         45.14130        19.67933         2.89676
C         43.87272        19.02531         3.10670
C         45.18465        20.97769         2.32596
C         43.88325        21.74293         2.23486
C         45.20189        23.56412         1.11186
C         43.96003        22.95101         1.34594
C         45.23311        24.86644         0.43165
C         43.99317        25.63932         0.35072
C         45.24660        27.78418         0.13040
C         44.01354        27.04733         0.14936
C         45.20196        29.23044         0.00500
C         43.95489        29.92209        -0.04019
C         45.14084        32.05971        -0.33747
C         43.94375        31.33811        -0.19555
C         45.11979        33.48452        -0.65961
C         43.89451        34.18344        -0.76650
C         45.07836        36.18937        -1.64627
C         43.90385        35.53672        -1.25683
C         45.03784        37.54285        -2.22332
C         43.79034        38.14720        -2.61461
C         45.07726        39.99138        -3.48582
C         43.80254        39.43936        -3.24397
C         45.11911        42.14690        -3.34380
C         43.92288        42.57756        -2.80787
C         45.12235        44.72949        -2.69929
C         43.91315        43.91706        -2.26670
C         45.16321        46.12792        -2.10588
C         43.94030        46.66174        -1.44651
C         45.32513        48.44805        -0.35362
C         43.99182        47.92532        -0.77848
C         45.42561        49.59794         0.57954
C         44.19447        50.38040         0.86400
C         45.52427        51.78449         2.38465
C         44.26556        51.37511         1.95616
C         45.63068        52.90963         3.32371
C         44.32593        53.45488         3.92429
C         45.66944        54.49575         5.70181
C         44.41392        54.20410         5.18871
C         46.26827        17.75933         3.89006
C         47.62238        19.70969         3.09293
C         46.35441        19.02656         3.28650
C         47.65131        20.99663         2.48911
C         46.41167        21.62908         2.07986
C         47.65789        23.67092         1.36409
C         46.42644        22.93891         1.48023
C         47.69451        25.02740         1.08615
C         46.54328        25.67298         0.46400
C         47.71274        27.86330         0.47694
C         46.47290        27.13167         0.36364
C         47.71301        29.22663        -0.17370
C         46.40605        29.97658        -0.04919
C         47.62150        32.19082        -0.03241
C         46.37815        31.36411        -0.22419
C         47.59768        33.50587        -0.76503
C         46.35566        34.15429        -0.97299
C         47.56411        36.17498        -1.68966
C         46.34223        35.51418        -1.45331
C         47.56202        37.67407        -1.85479
C         46.25962        38.24450        -2.36223
C         47.52630        40.36214        -2.93811
C         46.29190        39.53977        -2.92789
C         47.57513        41.78746        -2.91255
C         46.40667        42.64667        -2.91739
C         47.70275        44.64315        -2.32440
C         46.44683        43.98528        -2.55289
C         47.75606        46.00472        -1.97928
C         46.49189        46.76882        -1.86515
C         47.85952        48.71343        -0.85033
C         46.54056        48.07590        -1.13633
C         47.90477        49.88675         0.08916
C         46.70960        50.28086         0.84179
C         48.05190        51.67489         2.37243
C         46.76228        51.25590         1.82382
C         48.08762        52.48400         3.55646
C         46.89145        53.12262         4.05520
C         46.86756        53.96667         5.16151
C         50.05708        19.79478         3.31940
C         48.85420        19.13325         3.49006
C         50.11381        21.08306         2.72952
C         48.89802        21.66278         2.31896
C         50.22882        23.65709         1.35441
C         48.92897        22.93956         1.58168
C         50.18239        25.12397         0.88819
C         48.92094        25.84345         1.41975
C         50.13505        28.07108         1.09462
C         48.87393        27.26532         0.89372
C         50.14544        29.41259         0.41078
C         48.93685        30.05221         0.10949
C         50.11350        32.13854        -0.35154
C         48.91045        31.42903        -0.17280
C         50.08568        33.50893        -0.79989
C         48.82224        34.15486        -1.03978
C         50.04877        36.13640        -1.84731
C         48.80700        35.50031        -1.53817
C         50.02831        37.42773        -2.55250
C         48.73222        38.17875        -2.68539
C         49.98941        40.30204        -3.07523
C         48.76353        39.65247        -2.90239
C         50.04985        41.72771        -2.97145
C         48.83885        42.45582        -2.77269
C         50.16732        44.51227        -2.44686
C         48.91441        43.86198        -2.50138
C         50.21470        45.96050        -2.18008
C         49.00268        46.67375        -1.72552
C         50.38116        48.48952        -0.68915
C         49.10307        47.94395        -1.13763
C         50.44243        49.61342         0.18116
C         49.24280        50.35911         0.60276
C         50.51615        51.39100         2.48770
C         49.25579        51.15123         1.84775
C         50.49972        52.11595         3.71672
C         49.33338        52.65191         4.21616
C         52.57509        21.30094         3.14893
C         51.38125        21.82451         2.60801
C         52.63548        23.87863         2.02893
C         51.43636        23.11166         2.01836
C         52.62041        25.24385         1.53643
C         51.43724        25.90774         1.20317
C         52.63834        28.05045         0.86578
C         51.42729        27.30058         0.94760
C         52.61577        29.44956         0.53179
C         51.36631        30.11582         0.28860
C         52.58291        32.16741        -0.36958
C         51.35592        31.46750        -0.16482
C         52.55910        33.51673        -0.84429
C         51.30307        34.17503        -1.06886
C         52.53224        36.17034        -1.92187
C         51.28654        35.50834        -1.61260
C         52.51350        37.51123        -2.48330
C         51.30047        38.13018        -2.75771
C         52.52813        40.22253        -3.53803
C         51.22941        39.50133        -3.29531
C         52.48995        41.72525        -3.52609
C         51.29513        42.42543        -3.00885
C         52.68476        44.44781        -2.54841
C         51.37597        43.80331        -2.72323
C         52.77392        45.70962        -1.89232
C         51.58057        46.57878        -1.81158
C         52.82785        48.15067        -0.29387
C         51.57576        47.77696        -0.98141
C         52.98116        49.57367         0.15287
C         51.71384        50.37357         0.47693
C         53.00465        51.34628         2.40486
C         51.73372        50.96302         1.88128
C         53.75576        22.03938         3.14838
C         55.02875        24.20878         2.86267
C         53.81397        23.33096         2.60948
C         55.15634        25.35054         1.87609
C         53.88874        25.96153         1.34906
C         55.09717        28.13025         1.02381
C         53.88335        27.39747         1.04292
C         55.07700        29.50371         0.62827
C         53.83152        30.15066         0.34799
C         55.04298        32.21378        -0.31003
C         53.81754        31.51424        -0.10617
C         55.02515        33.54670        -0.82887
C         53.78075        34.19527        -1.10537
C         55.01202        36.20059        -1.90639
C         53.76009        35.53024        -1.64512
C         55.00706        37.53058        -2.42951
C         53.77638        38.20344        -2.71781
C         55.03882        40.20801        -3.40279
C         53.79790        39.53732        -3.18201
C         55.05031        41.65905        -3.78261
C         53.79569        42.46036        -3.55931
C         55.15849        44.31818        -2.56539
C         53.88048        43.77030        -2.88172
C         55.19886        45.47427        -1.73164
C         54.01530        46.15847        -1.39795
C         55.39702        47.90526        -0.11081
C         54.07193        47.32496        -0.47634
C         55.47163        49.09771         0.64064
C         54.27434        49.97644         0.77636
C         54.20475        50.98467         1.84860
C         57.50972        24.21564         2.84994
C         56.36311        23.51210         2.98385
C         57.53896        25.62033         2.45658
C         56.36216        26.20345         1.97485
C         57.53745        28.28514         1.41386
C         56.33470        27.52837         1.45022
C         57.52403        29.62041         0.89618
C         56.29737        30.23216         0.51239
C         57.50432        32.27643        -0.18349
C         56.28182        31.57724         0.00925
C         57.49147        33.59584        -0.73631
C         56.25993        34.22777        -1.06613
C         57.48769        36.24218        -1.84388
C         56.24612        35.55408        -1.62230
C         57.48014        37.55453        -2.35288
C         56.25068        38.19819        -2.66738
C         57.50528        40.09494        -3.78689
C         56.24291        39.52811        -3.19139
C         57.57298        41.59613        -3.78475
C         56.34249        42.42332        -3.79155
C         57.60116        44.42868        -2.88508
C         56.37658        43.77783        -3.14438
C         57.74778        45.35186        -1.74498
C         56.47779        45.91547        -1.14396
C         57.85071        47.71767        -0.07332
C         56.57651        47.20592        -0.43233
C         57.89083        48.87710         0.72527
C         56.72656        49.54720         1.08022
C         59.97088        25.85354         2.95093
C         58.76166        26.38200         2.44180
C         59.97617        28.44386         1.81886
C         58.75664        27.70353         1.89195
C         59.97414        29.76183         1.20659
C         58.75063        30.34713         0.77091
C         59.97155        32.33883        -0.01528
C         58.74210        31.65379         0.19036
C         59.96906        33.63386        -0.64983
C         58.73651        34.27711        -0.97294
C         59.98806        36.22954        -1.80810
C         58.73884        35.58568        -1.52870
C         60.01967        37.55403        -2.33049
C         58.75319        38.36512        -2.32070
C         60.01601        40.17256        -3.50274
C         58.79810        39.52738        -3.26945
C         60.04476        41.54573        -4.00122
C         58.76460        42.13699        -4.21537
C         60.09981        44.50250        -3.15032
C         58.80716        44.16558        -3.58830
C         60.21049        45.59017        -2.17522
C         59.03103        46.06001        -1.53702
C         60.34795        47.68976        -0.31192
C         59.08811        47.13104        -0.61199
C         61.14369        26.59581         2.90208
C         61.15388        27.87182         2.33317
C         61.17217        30.48653         1.02291
C         61.17340        31.72907         0.41665
C         61.18788        34.27964        -0.97340
C         61.19762        35.52746        -1.55004
C         61.22339        38.20772        -2.66884
C         61.23601        39.50192        -3.15885
C         61.19322        42.37746        -3.94757
C         61.21742        43.73346        -3.59612
C         61.44597        46.18191        -1.85503
C         61.50734        47.21332        -0.92002
O         42.65675        41.41854        -4.50084
O         27.23427        46.36919         1.38481
O         54.79431        25.10368         0.49887
O         42.01141        31.76726         1.23780
O         38.14150        27.58962         1.47799
O         29.25217        34.50187         0.09064
O         23.70277        46.54752        -1.92714
O         41.24003        38.49690        -4.01744
O         23.54272        35.71334         0.90176
O         53.90519        50.39300        -0.63379
O         33.47804        49.04138        -1.36324
O         41.99395        36.48181        -0.02568
O         48.56767        51.03724        -0.52296
O         40.84844        25.10631        -1.10313
O         28.19890        31.17315        -2.77155
O         51.79757        39.62971        -4.65481
O         45.14927        41.12573        -4.29393
O         53.22087        47.15553         0.73066
O         49.15647        37.36291        -3.79314
O         47.06037        49.10571        -2.03029
O         28.75007        43.83964         1.05356
O         25.98321        26.11297        -2.58609
O         32.57801        45.61249        -2.56169
O         23.14893        44.20025         0.72394
O         32.92011        32.40088        -3.05385
O         45.00714        54.13432         2.81434
O         43.55963        50.89053        -0.36757
O         49.69839        22.77344         0.30785
O         38.77883        38.57663        -3.87938
O         46.08551        24.96546        -0.74486
O         28.60827        22.40248        -2.52100
O         45.75111        47.02022        -3.12495
O         58.72530        43.43108        -4.77458
O         55.62937        42.09810        -5.06365
O         45.46739        48.20651         1.11076
O         57.19505        44.81402        -0.48769
O         40.65647        19.36783         0.27615
O         52.94729        42.39416        -4.75090
O         50.97772        46.74132        -3.14584
O         39.04496        47.85708        -2.05671
O         51.66334        51.53233        -0.40125
H         52.54749        51.60357        -0.83658
O         41.65966        43.09445        -0.25393
H         40.85490        42.54267        -0.09381
O         40.66960        16.13151         1.39431
H         40.75066        16.92705         0.82363
O         40.28450        50.82299        -0.67409
H         41.16039        50.84930        -1.11767
O         40.48215        53.81630         2.36554
H         40.55384        54.74537         2.66751
O         37.01091        29.40763        -2.58235
H         36.22462        29.49120        -3.16357
O         50.09838        25.14189        -0.54870
H         49.79106        24.24636        -0.83142
O         38.99097        20.93548        -0.87349
H         39.46048        20.07571        -1.00567
O         47.83136        28.94441        -1.61536
H         47.16394        28.26110        -1.84152
O         38.03269        32.07884        -2.52575
H         37.99853        31.17709        -2.92531
O         58.73074        38.98459        -0.95288
H         59.58143        39.46355        -0.84642
O         31.25160        38.21462        -3.67544
H         32.04903        38.64483        -4.05167
O         25.23073        41.49474         1.25058
H         25.07777        42.38870         1.62705
O         40.62621        50.64508         4.13902
H         40.55154        49.71678         3.83497
O         49.05736        25.88225         2.88157
H         48.22022        26.23511         3.25159
O         26.83120        48.23225        -1.69801
H         26.77575        49.17408        -1.96402
O         54.76759        24.86308         4.15035
H         54.77587        24.17271         4.84613
O         36.57217        22.23510        -1.22865
H         37.41763        21.74371        -1.40273
O         37.49011        33.09795         0.95336
H         37.73105        33.93336         1.40709
O         37.75152        42.31896        -3.95008
H         37.33348        43.20596        -3.99785
O         47.59459        32.56036         1.40364
H         46.75938        33.05096         1.56197
O         47.79393        38.23863        -0.51964
H         47.06753        37.93415         0.06462
O         43.67632        22.28324         3.60412
H         44.47837        22.79854         3.83558
O         37.92708        24.99893        -1.28340
H         38.85113        24.77012        -1.53286
O         41.36703        29.81166        -1.79509
H         41.30257        28.87345        -2.07536
O         27.98228        24.80777        -3.34745
H         27.34796        25.52294        -3.60686
O         29.85474        24.33964         0.69690
H         30.62590        23.98184         1.18807
O         36.26027        25.68852         1.92660
H         36.92020        26.34912         2.24722
O         29.38812        29.65129         0.37771
H         28.59604        30.00870         0.83092
O         39.06177        41.76594        -0.53396
H         38.28775        42.09443        -0.02839
O         35.52134        24.61535        -1.55696
H         36.06466        23.80814        -1.74198
O         35.29690        23.45194         1.97976
H         34.69449        24.17280         2.25764
O         57.41126        39.73108        -5.21897
H         56.72247        40.31728        -5.61339
O         34.77216        33.24038         0.60413
H         35.61466        33.00795         1.07195
O         35.16542        44.99458        -3.31480
H         34.28114        45.41925        -3.45019
O         42.11026        17.98477         5.39559
H         42.23180        18.93598         5.18589
O         50.14587        28.40482         2.54018
H         50.02611        27.54846         3.01964
O         44.92224        44.86665        -4.13489
H         45.35236        45.71565        -4.39816
O         30.00730        28.74445        -3.09792
H         30.75519        28.29189        -3.54049
O         40.76944        53.48317         7.28485
H         41.60702        53.68762         7.75274
H         23.06537        23.42780         0.07458
H         21.05261        24.63872         0.84184
H         20.98207        27.10136         0.86168
H         20.87739        29.00921         0.59664
H         20.82111        31.43097         0.39777
H         20.73029        33.23982        -0.41777
H         20.64590        35.64622        -0.71571
H         20.67661        37.66874        -0.72657
H         20.71937        40.11076        -0.96982
H         20.91620        41.96326        -1.78366
H         20.88684        44.41057        -1.72237
H         20.69375        46.37147        -0.53857
H         22.96757        49.96512         0.12187
H         20.82071        48.80750        -0.13825
H         24.87106        22.59626         0.08484
H         24.62693        50.72296         0.93527
H         26.72555        21.34797        -1.02049
H         26.75930        51.77588         1.43818
H         31.03502        19.00772        -0.91566
H         29.22291        20.00744        -2.31916
H         30.58062        53.23465         3.10847
H         28.44697        52.38927         2.29887
H         32.05525        18.43591         0.74832
H         32.24859        53.64792         4.02190
H         34.02891        17.47944         1.82138
H         34.37930        54.27345         5.01864
H         37.71591        15.73030         3.38462
H         35.60811        16.83757         2.81560
H         38.18418        55.03357         7.02670
H         36.01521        54.44667         6.05429
H         39.45769        14.63126         3.42017
H         39.78980        56.29512         7.02371
H         43.25819        15.41359         5.25446
H         41.33823        13.96894         4.83367
H         44.09284        56.15429         7.04196
H         41.96855        57.27368         7.64192
H         45.02076        16.18018         4.64716
H         45.75382        55.09799         6.61775
H         47.17872        17.22817         4.19815
H         47.80057        54.20399         5.69066
H         50.97741        19.29126         3.64324
H         48.86971        18.13449         3.94647
H         51.43222        52.28473         4.27080
H         49.37992        53.22789         5.15009
H         52.58833        20.30329         3.60614
H         53.03766        51.99990         3.28847
H         54.64897        21.59608         3.61080
H         55.13484        51.35079         2.30418
H         58.46639        23.69688         3.00597
H         56.40875        22.44971         3.26445
H         58.85029        49.29425         1.05612
H         56.80511        50.46783         1.67339
H         59.99169        24.85185         3.39981
H         60.43694        48.51098         0.41050
H         62.07429        26.17484         3.30725
H         62.10212        28.42385         2.30335
H         62.13176        30.06331         1.34673
H         62.13421        32.24387         0.29021
H         62.14757        33.78651        -0.77464
H         62.16489        35.98961        -1.78314
H         62.18496        37.68885        -2.55826
H         62.19925        39.97842        -3.38382
H         62.17928        41.88736        -3.98731
H         62.21968        44.15215        -3.41523
H         62.36763        45.83590        -2.34122
H         62.47711        47.66434        -0.66860
