         257
 CSIRO Nanostructure Databank - Neutral Graphene Oxide Data Set
C        -11.27990         0.21536         0.26168
C        -10.32055         1.18289         0.78447
C         -8.37978         0.25004         0.62555
C         -7.37277         1.31607         0.53370
C         -6.02484         0.84281         0.13551
C         -4.88973         1.41947         0.90558
C         -3.54231         0.89465         0.49450
C         -2.46465         1.35207         1.43713
C         -1.14508         0.68106         1.45658
C          0.05307         1.46895         1.95028
C          1.37738         0.73534         2.25512
C          2.63132         1.47744         1.77632
C          3.95465         0.80582         2.13894
C          5.23977         1.50260         1.77179
C          6.51922         0.68667         1.69168
C          7.93177         1.28412         1.76862
C          7.50805         0.13573        -1.09314
C          8.34895         0.66668        -2.20679
C          9.45470        -0.14244        -2.69735
C        -10.10823         2.50179         0.49434
C         -8.89687         3.25459         0.84566
C         -7.70347         2.49805         1.45448
C         -6.43653         3.40232         1.69998
C         -5.07449         2.69820         1.69716
C         -3.79192         3.49674         2.12420
C         -2.54217         2.85382         1.53249
C         -1.27624         3.61318         1.36854
C          0.02433         2.95327         1.74990
C          1.31690         3.74955         1.74798
C          2.60170         2.96650         1.54237
C          3.90514         3.74077         1.49820
C          5.16649         2.91124         1.17135
C          6.03493         3.47279         0.07158
C          7.25033         2.88601        -0.63165
C          7.30465         2.91403        -2.12981
C          8.12191         1.90505        -2.76278
C         -8.85673         4.58317         0.58260
C         -7.73370         5.55778         0.86523
C         -6.48933         4.90101         1.51725
C         -5.19454         5.72144         1.65910
C         -3.85968         5.03454         1.88724
C         -2.56139         5.83580         1.65849
C         -1.30413         5.11174         1.27958
C         -0.03640         5.87169         1.08570
C          1.27668         5.23128         1.47659
C          2.55122         6.01911         1.23374
C          3.86253         5.24339         1.23537
C          5.05616         5.95567         0.59628
C          5.40056         4.59581        -0.79882
C          6.30345         5.13947        -1.89744
C          6.97641         4.11905        -2.69110
C         -7.36335         6.27134        -0.43336
C         -6.64005         7.41729        -0.39399
C         -5.09972         7.14677         1.24266
C         -3.95765         7.87403         1.21497
C         -2.59160         7.34699         1.44436
C         -1.34840         8.22694         1.02293
C         -0.09139         7.34463         0.75885
C          1.15954         8.06771         0.42633
C          2.49946         7.45234         0.77079
C          3.71148         8.10610         0.15099
C          4.90181         7.24185        -0.21954
C          5.60422         7.51308        -1.53357
C          6.33152         6.44611        -2.25650
C         -6.13978         8.17423        -1.54020
C         -4.99718         8.91305        -1.63832
C         -3.89568         9.11816        -0.69395
C         -2.60147         9.23292        -1.10774
C         -1.44687         9.15996        -0.20799
C         -0.31245         9.84644        -0.50338
C          1.02291         9.61606         0.19647
C          2.12967         9.94896        -0.75568
C          3.45961         9.41086        -0.68419
C          4.29921         9.59883        -1.89092
C          5.18036         8.68572        -2.33455
C        -10.94655        -1.06889        -0.06816
C         -9.61900        -1.65898        -0.29922
C         -8.39895        -0.87274        -0.13294
C         -7.18142        -1.17244        -0.94714
C         -5.92296        -0.56916        -0.38363
C         -4.59099        -1.15670        -0.70406
C         -3.37040        -0.32000        -0.37242
C         -2.00312        -0.98707        -0.38268
C         -0.89670        -0.44301         0.48690
C          0.27566        -1.29698         0.87608
C          1.36980        -0.70997         1.72590
C          2.67806        -1.44080         1.92441
C          3.94245        -0.71242         2.31631
C          5.25005        -1.51970         2.30128
C          6.49766        -0.84088         1.78128
C          7.59852        -1.57072         0.99778
C          8.03693        -1.09691        -0.36932
C          8.65174        -2.07212        -1.37287
C          9.67745        -1.39399        -2.24835
C         -9.51604        -2.86335        -0.93423
C         -8.27048        -3.41063        -1.58688
C         -7.09897        -2.43982        -1.73658
C         -5.76201        -2.98275        -2.33767
C         -4.46335        -2.32472        -1.66685
C         -3.12639        -3.02700        -1.59906
C         -1.90719        -2.40859        -0.92341
C         -0.69676        -3.23197        -0.57797
C          0.46726        -2.60349         0.15972
C          1.60177        -3.45378         0.61027
C          2.76835        -2.81604         1.32402
C          3.95630        -3.64623         1.64856
C          5.00049        -3.00576         2.51199
C          5.75349        -3.85333         3.52895
C          8.02604        -2.98849         1.41273
C          8.65488        -3.89309         0.36191
C          9.12021        -3.38227        -0.81225
C         -7.79603        -4.75381        -1.03476
C         -6.60188        -5.29556        -1.42960
C         -5.66347        -4.53265        -2.35285
C         -4.22910        -5.08832        -2.71810
C         -3.00289        -4.48607        -1.98623
C         -1.82820        -5.32268        -1.50659
C         -0.56047        -4.74568        -0.83081
C          0.06044        -5.53208         0.32815
C          1.35294        -4.91884         0.87397
C          2.45480        -5.77316         1.46447
C          3.82824        -5.15635         1.67840
C          5.05977        -5.99033         1.49164
C          6.29643        -5.30712         0.96461
C          7.54862        -6.08447         0.77634
C          8.71995        -5.33847         0.53056
C         -6.70568        -6.36684        -2.51701
C         -5.54030        -7.31361        -2.57969
C         -4.20285        -6.64818        -2.74176
C         -3.01073        -7.47099        -2.31524
C         -1.89628        -6.83818        -1.55460
C         -1.37910        -7.65820        -0.34097
C         -0.16182        -7.02039         0.41985
C          1.00634        -7.89496         0.88289
C          2.32247        -7.28701         1.36901
C          3.59602        -8.12389         1.26917
C          4.96754        -7.48250         1.33706
C          6.19351        -8.21132         0.81904
C          7.44457        -7.46405         0.57734
C         -5.64901        -8.60188        -1.85507
C         -4.56654        -9.35620        -1.62102
C         -3.24115        -8.99277        -2.25523
C         -2.09960        -9.69983        -1.58233
C         -1.21859        -9.11797        -0.75065
C         -0.24775        -9.97067         0.02683
C          1.06625        -9.27053         0.29582
C          2.21673        -9.95354         0.11714
C          3.52878        -9.48014         0.59870
C          4.75226       -10.04581        -0.01518
C          5.97199        -9.48657         0.10299
O         -6.45155        -5.24213        -3.45246
O          4.70118         1.53830         3.13807
O         -3.47641        -2.12670        -2.70164
O          8.02027        -3.32099         2.57830
O          6.34391         3.70967         1.46446
O         -9.35733         0.50737         1.58330
O         -1.06839         9.01663         2.14012
O          4.73805        -3.23908         3.97129
O         -4.88013        -7.26596        -3.88725
O         -3.31420         1.01982        -0.93646
O          0.28353        -1.49117         2.33006
O         -1.68192        -7.27109        -2.92233
O         -2.35704         6.76902         2.75430
O         -7.42387        -1.16671        -2.37587
O         -4.61316         5.59885         2.99674
O          1.61277        -2.84023        -0.71634
O         -5.11513         1.39756         2.34338
O          8.82734        -0.78169         0.80927
O         -4.11140         9.17932         0.69602
O          4.19533         4.38138        -1.18744
O          4.14829         4.70206         2.55684
O          0.44652         7.40662        -0.63235
O         -2.08080         3.21922         0.19280
O          6.43397         0.65803        -0.79628
O          2.52710         2.00776         0.42949
O          8.30121         2.76560        -0.03102
O          6.15739         7.95024        -0.23756
O          2.64957         7.14452         2.17801
O          6.21946        -4.15758         0.54270
O         -0.97134        -0.10009        -0.91454
O          4.58430        -5.63443         2.83228
O         -0.74774         5.30955        -0.07089
O         -8.09263         1.94093         2.66494
O         -1.85307        -4.74348        -2.84821
O          3.55932        -9.33225         2.06027
O         -0.24176         2.34295         3.06132
O         -2.14234         0.44014         2.50692
O          1.34764        -7.83264         2.29289
O         -0.72838        -6.08070         1.39023
O          7.39392         1.12426         2.88163
O         -2.46963        -7.68689         0.53677
O         -6.72567         4.27321         2.81252
O         -5.28395        -1.51746         0.54104
O          6.32053        -1.13747         3.19931
O          4.06893         9.37873         0.66764
O          1.46495        -5.14490         2.31289
O         -0.79754        -2.52758        -1.85884
O          3.90941        -2.95490         0.37898
O         -6.81174         1.68118        -0.76186
O          3.06461        -1.28528         3.32359
O         -6.25110         7.86586         0.87957
O          1.30749         4.70291         2.83938
O          5.84196        -8.18028         2.26036
O         -3.63493         3.31093         3.52919
H         -4.29735         3.87825         3.98594
O          1.50541         0.67290         3.67247
H          0.79194         0.10411         4.03168
O         -8.24818         6.52200         1.79937
H         -8.28361         6.09102         2.67975
O          6.07882         6.11369         1.45126
H          5.96619         5.50174         2.22262
O         -0.04638       -11.22206        -0.61924
H          0.17564       -11.06095        -1.55904
O          1.12605        10.28525         1.44391
H          0.32076         9.99951         1.97435
O         -8.72560        -3.81951        -2.89901
H         -7.94077        -4.12837        -3.41914
O         -4.07708        -4.63389        -4.07767
H         -3.14641        -4.81202        -4.34362
O          7.52796        -2.41320        -2.24649
H          7.84963        -3.01803        -2.94728
O         -5.77883        -2.55104        -3.68951
H         -5.05645        -3.02787        -4.16638
O         -3.28834        -9.47333        -3.61857
H         -3.89456        -8.87212        -4.11616
O          0.47244        -4.89933        -1.82882
H          0.21674        -4.32863        -2.59084
H         10.54511        -1.97118        -2.59995
H         10.14828         0.32354        -3.41371
H          8.67583         2.18724        -3.67414
H          7.22059         4.34219        -3.74235
H          6.91102         6.75295        -3.14227
H          5.68097         8.83813        -3.30229
H          4.05252        10.46191        -2.52726
H          1.84216        10.37061        -1.73405
H         -0.31657        10.54182        -1.35794
H         -2.38726         9.32103        -2.18477
H         -4.77271         9.29937        -2.64747
H         -6.72461         8.05679        -2.46710
H         -7.69857         5.84738        -1.39016
H         -9.76252         5.05874         0.17214
H        -10.86255         3.03478        -0.10387
H        -12.33142         0.52438         0.15139
H        -11.77663        -1.71727        -0.39415
H        -10.43125        -3.43610        -1.14987
H         -8.60564        -5.46990        -0.80604
H         -7.69950        -6.84512        -2.67385
H         -6.63570        -8.87644        -1.45206
H         -4.65000       -10.29607        -1.05704
H         -2.01273       -10.77830        -1.78828
H         -0.70770       -10.18605         1.02981
H          2.16072       -10.97020        -0.30493
H          4.63419       -10.96780        -0.60438
H          6.83899        -9.94615        -0.39452
H          8.32935        -8.03136         0.24830
H          9.63475        -5.87063         0.22280
H          9.57533        -4.07185        -1.54499
