         234
 CSIRO Nanostructure Databank - Neutral Graphene Oxide Data Set
C          1.26017         2.04002        -0.11100
C          1.25403         3.43191         0.09071
C          2.45318         1.35056        -0.19882
C          2.44836         4.14487         0.21862
C          1.20527         6.34614         0.51803
C          1.14009         7.71542         0.44661
C          2.44076         5.60946         0.35307
C          2.30503         8.52897         0.25732
C          1.05565        10.69808         0.04058
C          1.04367        12.07835         0.02185
C          2.25657         9.91044         0.03430
C          2.23159        12.88052        -0.01186
C          1.07950        15.06446         0.36058
C          1.08929        16.40328         0.58551
C          2.28018        14.25548         0.27953
C          2.33223        17.13524         0.90547
C          2.42592        18.58646         0.64700
C          3.70935         1.99924        -0.02161
C          3.70215         3.43296         0.20212
C          4.87196         1.19886        -0.27207
C          4.89829         4.20774         0.18324
C          3.61687         6.33370         0.24378
C          3.63364         7.82749         0.48045
C          4.87339         5.65383         0.02950
C          4.80519         8.50744        -0.18559
C          3.49858        10.65122        -0.30731
C          3.48111        12.16342        -0.35121
C          4.83028         9.99929         0.01165
C          4.77872        12.92202        -0.25145
C          3.56572        14.91113         0.51100
C          3.61466        16.34574         0.90107
C          4.75951        14.25410         0.37536
C          4.88991        17.06995         0.66360
C          3.61984        19.20769         0.50234
C          4.88543        18.48848         0.51483
C          6.16476         1.53710         0.13770
C          6.17091         3.63802         0.40296
C          7.43991         1.11408        -0.30475
C          7.37735         4.16758        -0.09441
C          6.06095         6.32334        -0.20540
C          6.12841         7.80843         0.01036
C          7.26906         5.55320        -0.70290
C          7.26524         8.46652        -0.74327
C          6.02321        10.71547        -0.61089
C          6.07923        12.19296        -0.34402
C          7.29557         9.96725        -0.75959
C          7.32386        12.82971         0.13305
C          6.05179        14.87377         0.86783
C          6.09283        16.35744         0.60954
C          7.33058        14.16972         0.45425
C          7.33481        17.02231         0.47336
C          6.09939        19.14959         0.31151
C          7.32935        18.44172         0.29551
C          8.59014         1.94573        -0.24901
C          8.53944         3.39943        -0.28312
C          9.87046         1.29426        -0.28129
C          9.74517         4.11774        -0.77033
C          8.58872         6.29683        -0.62429
C          8.56479         7.75587        -0.87930
C          9.75308         5.60799        -0.74183
C          9.83927         8.51861        -0.83461
C          8.57071        10.59900        -0.29541
C          8.56821        12.03011         0.15269
C          9.85763         9.91559        -0.57652
C          9.86512        12.71770         0.25675
C          8.56921        14.88817         0.57445
C          8.58620        16.29579         0.53993
C          9.83521        14.13195         0.70688
C          9.83674        17.01358         0.44321
C          8.56159        19.10613         0.07848
C          9.78688        18.42323         0.12624
C         11.07999         1.97496        -0.31711
C         11.09638         3.38990        -0.72463
C         12.33995         1.35183        -0.09856
C         12.34376         4.15301        -0.54499
C         11.01159         6.33395        -1.06753
C         11.04818         7.80810        -0.91751
C         12.33675         5.57447        -0.95217
C         12.28647         8.50919        -0.88318
C         11.06702        10.61991        -0.41083
C         11.04063        12.02596         0.00052
C         12.31642         9.93419        -0.64146
C         12.29468        12.71154         0.22073
C         11.14685        14.89006         0.87165
C         11.09969        16.38167         0.61830
C         12.35392        14.01889         0.65325
C         12.26417        17.18915         0.44280
C         10.98781        19.13414        -0.18890
C         12.21808        18.52579        -0.07179
C         13.52759         2.06615         0.05548
C         13.49331         3.54442        -0.04290
C         14.74766         1.27280         0.10481
C         14.67731         4.38935         0.12008
C         13.55078         6.38632        -0.78153
C         13.51765         7.78625        -0.89591
C         14.72587         5.70682        -0.35612
C         14.78360         8.53300        -1.09916
C         13.55768        10.61541        -0.53272
C         13.59686        11.93882         0.18404
C         14.81976         9.98858        -0.81428
C         14.76743        12.80437        -0.24922
C         13.66302        14.55912         0.95610
C         13.56756        16.73552         0.80837
C         14.82030        14.13498         0.37662
C         14.75993        17.22155         0.31499
C         13.49237        19.28466        -0.44856
C         14.80512        18.57628        -0.14748
C         15.89670         1.68746         0.74922
C         15.86576         3.88801         0.76015
C         17.25172         1.25052         0.67253
C         17.14265         4.34330         0.53890
C         15.99623         6.45782        -0.30250
C         16.07701         7.75547        -1.04142
C         17.26008         5.74152         0.09226
C         17.38670         8.49866        -1.00602
C         16.04461        10.65608        -0.64511
C         16.07747        12.12701        -0.50094
C         17.35979         9.99919        -0.81450
C         17.33602        12.85106        -0.15485
C         16.02197        15.00256         0.05048
C         15.99935        16.42840         0.61342
C         17.32901        14.22670         0.16408
C         17.29054        17.17133         0.64698
C         16.02208        19.22030        -0.19517
C         17.27571        18.55500         0.09147
C         18.35777         2.07102         0.96786
C         18.33333         3.57285         1.01485
C         19.63024         1.43561         1.06118
C         19.67063         4.28367         0.91898
C         18.57953         6.27873        -0.34843
C         18.65943         7.73384        -0.73225
C         19.79412         5.59673         0.18625
C         19.89708         8.50511        -0.34943
C         18.59589        10.69093        -0.34696
C         18.55877        12.11155        -0.10852
C         19.79471         9.98397        -0.17890
C         19.77934        12.81339         0.14079
C         18.55101        14.91501         0.41902
C         18.61602        16.40495         0.78608
C         19.76643        14.22080         0.37827
C         19.78814        17.06181         0.08799
C         18.44909        19.11282        -0.35557
C         19.70272        18.39345        -0.38170
C         20.84702         2.10736         1.10016
C         20.92696         3.50487         0.95006
C         22.14539         4.21764         0.88409
C         21.05052         6.37073         0.38166
C         21.05662         7.77383         0.23895
C         22.19777         5.60028         0.71796
C         22.20782         8.56230         0.53370
C         21.00919        10.68212         0.12159
C         21.01640        12.09436         0.14970
C         22.19876         9.93089         0.42269
C         22.25863        12.84027         0.12806
C         21.06983        14.96792         0.65456
C         21.00498        16.36104         0.02788
C         22.28650        14.18059         0.25321
C         22.12520        16.98638        -0.54346
C         20.84423        18.99816        -0.94920
C         22.04050        18.29419        -1.03088
O          5.54463        12.95012        -1.50646
O          2.96695        16.69290         2.17212
O         16.57980         6.66163         1.04067
O         15.42230         7.94348        -2.30989
O          6.22710         2.48613         1.18982
O          8.45139        10.91118         1.14667
O         10.36234         3.59112        -1.97869
O         13.64830        15.70496         1.74704
O          3.41019        11.35419        -1.57296
O         11.68840         5.82956        -2.24997
O          6.56284        10.43728        -1.93385
O         16.52233        16.86675         1.89294
O         15.25649        12.74100        -1.61706
O         17.52664         9.37940        -2.14520
O         10.42219        14.40490         2.04352
O         15.70753         2.79166         1.60144
O          7.64985         7.97174        -2.05486
O         19.66205         8.02146        -1.73244
O         18.94704         4.23115         2.18751
O         19.35231         5.41080        -1.21947
O         15.87352        15.30734        -1.37729
H         15.75108        14.43940        -1.84613
O         13.91850        11.61876         1.58565
H         13.12806        11.20134         1.98974
O         21.23087        15.12359         2.09172
H         20.46251        15.66036         2.41752
O          5.02682        10.28171         1.45871
H          5.83981         9.78052         1.72940
O          7.02923         5.32599        -2.12945
H          7.08952         6.21224        -2.56417
O         13.48308        20.58463         0.15437
H         13.58449        20.47624         1.12216
O          3.85435         7.93590         1.95876
H          3.92170         8.90690         2.14648
O         18.94978        16.47532         2.20853
H         18.09504        16.41062         2.69984
O          6.50912         7.99216         1.44022
H          5.72299         7.67085         1.95770
O          6.03378        14.71256         2.32830
H          5.28878        15.24766         2.67893
H          0.30640         1.50587        -0.22242
H          0.28697         3.95102         0.11384
H          2.44439         0.26710        -0.38680
H          0.26664         5.79284         0.65851
H          0.15137         8.19526         0.49238
H          0.08996        10.18274         0.14776
H          0.07103        12.58060         0.12729
H          0.11752        14.57820         0.14412
H          0.15022        16.97473         0.53560
H          1.48991        19.15765         0.55233
H          4.73098         0.28566        -0.87088
H          3.65462        20.29230         0.32037
H          7.55843         0.10715        -0.73448
H          6.10993        20.24121         0.17578
H          9.88793         0.20485        -0.12395
H          8.55989        20.18552        -0.13376
H         12.36830         0.25554        -0.00601
H         10.91814        20.18330        -0.51015
H         14.73303         0.30283        -0.41552
H         13.44654        19.46176        -1.55999
H         17.45481         0.21164         0.36687
H         16.06404        20.27348        -0.51085
H         19.64244         0.33575         1.09028
H         18.42313        20.11001        -0.82108
H         21.77750         1.52612         1.17780
H         23.08536         3.66174         1.01647
H         23.17808         6.09222         0.78291
H         23.12960         8.06728         0.86853
H         23.11873        10.47706         0.66950
H         23.19510        12.29899        -0.06710
H         23.25606        14.69775         0.23371
H         23.08716        16.46098        -0.60773
H         20.77862        20.02963        -1.32357
H         22.92791        18.76791        -1.47298
