         630
 CSIRO Nanostructure Databank - Neutral Graphene Oxide Data Set
C         23.23593        27.50753         2.57650
C         23.25714        28.86727         2.49356
C         23.23295        31.79324         2.29170
C         23.19491        33.14632         2.05115
C         23.09449        36.00249         1.43675
C         23.05706        37.36283         1.21107
C         22.97271        40.25568         0.65824
C         22.90953        41.60634         0.50953
C         22.89130        44.59530         0.16074
C         22.88011        45.95015        -0.11429
C         25.70943        24.65827         2.40723
C         24.52280        25.29995         2.55320
C         25.79254        27.52366         2.61611
C         24.46713        26.74642         2.79216
C         25.71788        28.95682         2.26303
C         24.47528        29.63336         2.37593
C         25.63139        31.75129         1.80340
C         24.44057        31.05179         2.15474
C         25.59388        33.16167         1.57028
C         24.36155        33.86398         1.67213
C         25.51923        35.98401         1.12538
C         24.31663        35.28198         1.41027
C         25.48456        37.39926         0.91998
C         24.24164        38.09790         0.96015
C         25.42700        40.22890         0.67810
C         24.21760        39.53392         0.80635
C         25.43278        41.69658         0.75263
C         24.08994        42.45208         0.71316
C         25.33684        44.57186         0.22706
C         24.10880        43.89018         0.33453
C         25.33451        45.99446        -0.00859
C         24.09268        46.67546        -0.19967
C         25.28164        48.76557        -0.60505
C         24.10255        48.07374        -0.48499
C         28.30325        23.23320         2.34186
C         28.20044        24.62731         2.02474
C         26.97394        25.36759         2.30585
C         28.26386        27.53605         2.10644
C         26.98898        26.74887         2.28153
C         28.03409        28.81054         1.29885
C         26.86717        29.62781         1.80630
C         28.06797        31.73044         1.29720
C         26.85910        31.03253         1.61500
C         28.04591        33.15878         1.15588
C         26.80036        33.86482         1.24367
C         27.97372        35.98659         0.78850
C         26.76640        35.27492         1.05240
C         27.94160        37.40796         0.61861
C         26.70155        38.11033         0.67685
C         27.87019        40.25304         0.28481
C         26.67392        39.53499         0.53909
C         27.84720        41.70133         0.14788
C         26.64124        42.42442         0.35513
C         27.80534        44.52803        -0.01980
C         26.59959        43.83502         0.21105
C         27.80680        45.99854         0.10506
C         26.54243        46.74109        -0.05436
C         27.77362        48.85710        -0.57039
C         26.54693        48.12417        -0.39962
C         27.86822        50.05963        -1.34225
C         30.52398        23.03556         1.28784
C         29.43450        22.50214         2.10842
C         30.46638        24.55102         0.99890
C         29.33377        25.31661         1.53937
C         30.52008        27.41789         1.01547
C         29.39057        26.73096         1.50234
C         30.51087        28.86926         0.90443
C         29.31983        29.58797         1.13589
C         30.51687        31.70140         0.85323
C         29.30126        31.00324         1.09845
C         30.57285        33.17969         1.11533
C         29.24645        33.87872         0.92801
C         30.43951        36.00442         0.49562
C         29.21809        35.28142         0.73859
C         30.39701        37.42226         0.33473
C         29.15424        38.12571         0.39820
C         30.31088        40.25068        -0.08544
C         29.11378        39.54712         0.19475
C         30.26542        41.67475        -0.56481
C         29.02857        42.40963        -0.14560
C         30.27489        44.53245        -0.34890
C         29.03664        43.82788        -0.17699
C         30.24382        45.98326        -0.71596
C         29.09538        46.72685        -0.04159
C         30.32994        48.95606        -0.40021
C         29.04936        48.22492        -0.18645
C         30.31031        50.43938        -0.81650
C         29.04283        50.72521        -1.59515
C         33.13686        20.31275         1.30962
C         31.95097        20.99384         1.51354
C         32.99174        23.08787         0.80717
C         31.84571        22.36938         1.22605
C         32.90674        24.51467         0.58689
C         31.73494        25.24977         0.73982
C         32.85376        27.41821         0.26403
C         31.71556        26.69919         0.68349
C         32.87082        28.83252         0.16550
C         31.69210        29.56961         0.50319
C         32.85319        31.73351         0.04831
C         31.68489        31.00657         0.49061
C         32.90308        33.13882         0.07463
C         31.73743        33.88863         0.46731
C         32.92214        36.04833         0.19007
C         31.67705        35.28291         0.37306
C         32.83812        37.49037        -0.08207
C         31.59686        38.16052         0.06779
C         32.77167        40.30692        -0.30964
C         31.54865        39.57419        -0.12803
C         32.76075        41.74782        -0.29274
C         31.53768        42.43602        -0.29424
C         32.76101        44.58392        -0.28724
C         31.51901        43.85694        -0.31055
C         32.74794        46.03307        -0.38014
C         31.55606        46.69890        -0.54082
C         32.77719        48.94231        -0.42839
C         31.53435        48.16547        -0.88906
C         32.93054        50.16847        -1.33893
C         31.62458        50.93594        -1.44139
C         32.98547        52.88318        -2.01903
C         31.73209        52.25383        -1.84188
C         35.60561        18.86147         0.78946
C         35.51337        20.25327         0.55444
C         34.29198        20.98011         0.83394
C         35.42086        23.05500         0.15621
C         34.23855        22.38738         0.62809
C         35.43858        24.53253         0.11332
C         34.16049        25.26085         0.35506
C         35.30184        27.39057        -0.52300
C         34.04236        26.65765        -0.15498
C         35.27509        28.86384        -0.51216
C         34.06743        29.51672        -0.26064
C         35.20744        31.68989        -1.02271
C         33.96290        30.96238        -0.53853
C         35.18883        33.16385        -0.92027
C         34.10408        33.82423        -0.39173
C         35.24233        36.03471        -0.90233
C         34.20478        35.29009        -0.21220
C         35.15090        37.47162        -0.97568
C         33.98625        38.19543        -0.46228
C         35.23485        40.34627        -0.52463
C         33.99018        39.62141        -0.47316
C         35.23175        41.75212        -0.32381
C         33.99609        42.46672        -0.25880
C         35.24606        44.61629        -0.13672
C         33.98921        43.89343        -0.22369
C         35.26209        46.02274        -0.11486
C         34.02119        46.76594        -0.28387
C         35.24258        48.91236         0.14836
C         34.03986        48.13884        -0.33304
C         35.27132        50.38231        -0.31635
C         34.11378        51.01475        -0.96228
C         35.47247        52.99514        -1.61233
C         34.18292        52.30863        -1.50026
C         35.56367        54.29215        -2.18415
C         37.91221        18.82350         0.02915
C         36.77841        18.16773         0.53142
C         37.86020        20.21140        -0.23741
C         36.64106        20.93605         0.01049
C         37.63108        23.06389        -1.00787
C         36.56900        22.35059        -0.19200
C         37.78491        24.54749        -0.68567
C         36.61615        25.26088        -0.42630
C         37.78190        27.41449        -0.68142
C         36.59723        26.68346        -0.49204
C         37.75251        28.85944        -0.78426
C         36.51323        29.56652        -0.75874
C         37.71775        31.68281        -1.10103
C         36.51194        30.97919        -0.96269
C         37.67334        33.11950        -1.48148
C         36.36441        33.86265        -1.48955
C         37.69049        36.05693        -1.32371
C         36.35509        35.38455        -1.68123
C         37.72350        37.45420        -1.14708
C         36.47185        38.25923        -1.17000
C         37.68660        40.34786        -0.58845
C         36.47416        39.66622        -0.71358
C         37.69881        41.74180        -0.28764
C         36.46884        42.45831        -0.21165
C         37.71440        44.56506         0.09093
C         36.47586        43.87833        -0.07419
C         37.73081        45.99171         0.12221
C         36.51124        46.73643        -0.00805
C         37.78114        48.84213        -0.05095
C         36.54037        48.15521        -0.04396
C         37.85581        50.26054        -0.38516
C         36.61812        51.05370        -0.53476
C         37.93612        52.92118        -1.55426
C         36.66903        52.32822        -1.27956
C         38.00160        54.22869        -2.11667
C         36.78269        54.89281        -2.41377
C         40.25573        16.02767        -1.00175
C         39.11890        16.67229        -0.65415
C         40.35311        18.83021        -0.62636
C         39.20580        18.05310        -0.04484
C         40.28135        20.22517        -0.80919
C         39.03272        20.90082        -0.70547
C         40.27241        23.10298        -1.09836
C         38.95329        22.31031        -1.08869
C         40.24772        24.56350        -0.89045
C         39.02247        25.26080        -0.81584
C         40.23724        27.43118        -0.87662
C         39.02565        26.70761        -0.76665
C         40.22697        28.87151        -0.97407
C         38.97804        29.57443        -0.93304
C         40.20208        31.69487        -1.34095
C         38.97395        30.99654        -1.09778
C         40.16167        33.14016        -1.64600
C         38.92144        33.90285        -1.45069
C         40.17787        36.02359        -1.20680
C         38.91925        35.30726        -1.35528
C         40.16425        37.43796        -0.96994
C         38.93823        38.15042        -0.95605
C         40.18911        40.29336        -0.43801
C         38.95872        39.66400        -1.03549
C         40.15805        41.66537        -0.08524
C         38.93774        42.42911        -0.06225
C         40.15639        44.52071         0.57867
C         38.94315        43.83019         0.19709
C         40.17817        45.94726         0.62084
C         38.97203        46.68051         0.28018
C         40.24140        48.82089         0.23623
C         38.97443        48.09212         0.14294
C         40.31165        50.26441        -0.21191
C         39.06193        50.89920        -0.65038
C         40.40763        52.81417        -1.47675
C         39.14642        52.21967        -1.22549
C         40.47550        54.14002        -2.01554
C         39.28375        54.85284        -2.32669
C         40.60117        56.80438        -2.96981
C         39.38338        56.18654        -2.82362
C         42.75536        16.01144        -1.16746
C         41.54313        16.70237        -0.97002
C         42.80506        18.82602        -0.97889
C         41.56929        18.12040        -0.84525
C         42.79889        20.25675        -0.97303
C         41.52143        20.97224        -0.95386
C         42.78461        23.07676        -0.55493
C         41.50824        22.34988        -0.88217
C         42.69932        24.56436        -0.76267
C         41.49360        25.26526        -0.76840
C         42.68721        27.43547        -0.89599
C         41.48961        26.72480        -0.81756
C         42.68264        28.83900        -1.31919
C         41.43006        29.59480        -1.18025
C         42.72217        31.74862        -1.38844
C         41.44289        31.01261        -1.33363
C         42.72402        33.14662        -1.42191
C         41.48504        33.90979        -1.64564
C         42.62906        36.03845        -1.02973
C         41.42352        35.34885        -1.29728
C         42.60305        37.40554        -0.67465
C         41.39185        38.13408        -0.69667
C         42.61685        40.22711        -0.07593
C         41.38290        39.54578        -0.38725
C         42.58295        41.62146         0.19895
C         41.37596        42.32815         0.26019
C         42.48435        44.11698         1.43408
C         41.33982        43.70075         0.74649
C         42.55029        46.26382         1.47217
C         41.40507        46.71939         0.79805
C         42.71745        48.72452         0.13508
C         41.49389        48.06636         0.31464
C         42.78730        50.06134        -0.43708
C         41.60615        50.80420        -0.65371
C         42.90871        52.68650        -1.50576
C         41.64352        52.09727        -1.22376
C         42.96690        54.06493        -1.93806
C         41.75224        54.76715        -2.20441
C         43.06398        56.76681        -2.77307
C         41.80816        56.11826        -2.65373
C         43.96615        16.68994        -1.20850
C         45.27151        18.83764        -1.14513
C         44.02432        18.10647        -1.11658
C         45.25699        20.26406        -1.09800
C         44.00555        20.95321        -1.07639
C         45.27411        23.12526        -0.91109
C         43.97820        22.44713        -1.27920
C         45.26547        24.63024        -0.97831
C         43.95728        25.27099        -0.54634
C         45.26168        27.47698        -0.76519
C         43.95877        26.77964        -0.61111
C         45.26635        28.87471        -0.97228
C         44.03308        29.59738        -1.35479
C         45.22475        31.75825        -1.08235
C         43.98566        31.05722        -1.26283
C         45.24134        33.18480        -1.11616
C         44.01699        33.89027        -1.67094
C         45.20229        36.05936        -0.87883
C         43.94191        35.37863        -1.30322
C         45.13501        37.35220        -0.14123
C         43.82207        38.07107        -0.15627
C         45.08084        40.18826         0.32666
C         43.84454        39.52825        -0.01760
C         45.08405        41.54978         0.56868
C         43.87378        42.39041         0.24306
C         44.94142        44.12546         1.63377
C         43.77636        43.55411         1.19189
C         45.04057        46.26598         1.73091
C         43.83103        46.86728         1.29643
C         45.19934        48.59149         0.21153
C         43.92848        48.05466         0.51153
C         45.26476        49.78622        -0.65173
C         44.04090        50.60774        -0.83463
C         45.39671        52.56284        -1.67483
C         44.09940        51.91872        -1.34977
C         45.44455        54.03324        -1.77293
C         44.21117        54.74255        -2.04565
C         44.22905        56.10308        -2.45452
C         47.70679        18.89701        -1.21114
C         46.52623        18.18223        -1.21258
C         47.71876        20.31420        -1.11200
C         46.48959        20.99709        -1.04807
C         47.73016        23.18992        -0.79167
C         46.46644        22.45034        -0.90252
C         47.73781        24.57591        -0.60771
C         46.44975        25.28106        -0.25720
C         47.69832        27.47149        -0.48023
C         46.46169        26.77184        -0.54410
C         47.67609        28.88820        -0.52510
C         46.47691        29.59850        -0.79283
C         47.70351        31.74844        -0.83529
C         46.45379        31.04144        -0.89354
C         47.71165        33.20765        -0.86989
C         46.45465        33.90007        -0.92114
C         47.65707        36.02166        -0.48259
C         46.47142        35.31263        -0.76614
C         47.64079        37.42374        -0.13805
C         46.39942        38.10983         0.01167
C         47.58407        40.17070         0.59900
C         46.35273        39.46103         0.35944
C         47.57338        41.53919         0.95483
C         46.26018        42.18702         1.26519
C         47.49983        44.42449         1.55357
C         46.25865        43.70776         1.04577
C         47.51329        45.86789         1.50877
C         46.30684        46.66502         1.27916
C         47.67685        48.55521         0.42918
C         46.38877        47.92202         0.59279
C         47.78081        49.85029        -0.11939
C         46.63719        50.41551        -0.85680
C         47.89094        52.63437        -0.99651
C         46.70931        51.82883        -1.34529
C         47.85357        53.99598        -1.26744
C         46.67538        54.66605        -1.67388
C         50.21322        20.40138        -1.12835
C         48.97715        21.05694        -1.05560
C         50.19979        23.19413        -0.77418
C         48.96612        22.47569        -0.89602
C         50.18084        24.59710        -0.57179
C         48.95903        25.30765        -0.50967
C         50.19982        27.45847        -0.47480
C         48.94661        26.74510        -0.39019
C         50.20407        28.90764        -0.47557
C         48.91848        29.63440        -0.12991
C         50.14665        31.81724        -0.47296
C         48.89192        31.06240        -0.59858
C         50.17559        33.17489        -1.13228
C         48.90677        33.93584        -0.82455
C         50.12432        36.06775        -0.36902
C         48.91762        35.34286        -0.57972
C         50.11232        37.42136         0.03448
C         48.85700        38.11024         0.12955
C         50.04681        40.18473         0.80267
C         48.83484        39.48899         0.50199
C         50.01297        41.56562         1.16749
C         48.75278        42.25984         1.22502
C         49.93886        44.32107         1.96620
C         48.68571        43.66801         1.58746
C         49.96095        45.89938         1.89853
C         48.74370        46.56951         1.45722
C         50.09146        48.59760         0.96561
C         48.83757        47.90489         0.96318
C         50.14343        49.97768         0.57398
C         48.98410        50.60762         0.01556
C         50.24266        52.68920        -0.18451
C         49.03971        51.98188        -0.39029
C         51.41933        21.10289        -1.04103
C         52.70970        23.22791        -0.78187
C         51.44820        22.48762        -0.85805
C         52.71151        24.59339        -0.61220
C         51.45088        25.31290        -0.20910
C         52.63661        27.47514        -1.06566
C         51.41134        26.77044        -0.55615
C         52.66288        28.94159        -0.72940
C         51.41877        29.59978        -0.51074
C         52.70292        31.79750        -0.58438
C         51.43572        31.06956        -0.37216
C         52.70385        33.20058        -0.59328
C         51.46386        33.94335        -0.88862
C         52.64984        36.04599        -0.04241
C         51.42942        35.41152        -0.57285
C         52.59035        37.39963         0.36001
C         51.33335        38.10830         0.36881
C         52.51417        40.15385         1.10218
C         51.29806        39.47481         0.75237
C         52.48380        41.53461         1.44364
C         51.23751        42.24909         1.46643
C         52.42634        44.36725         1.92062
C         51.21986        43.63075         1.79643
C         52.43137        45.78679         1.83725
C         51.25733        46.53961         1.67727
C         52.54084        48.64671         1.39916
C         51.29323        47.92063         1.32403
C         52.55185        50.05595         1.20792
C         51.35400        50.71691         0.72622
C         51.36476        52.07829         0.35514
C         55.17282        23.16531        -0.86619
C         53.97490        22.51985        -0.88545
C         55.24920        24.60232        -0.83762
C         54.00457        25.34414        -0.40730
C         55.12302        27.49614        -1.03044
C         53.95920        26.79266        -0.84081
C         55.13303        28.95170        -0.97404
C         53.89127        29.64063        -0.75303
C         55.14689        31.78421        -0.53893
C         53.91506        31.07588        -0.62065
C         55.13099        33.19351        -0.28792
C         53.90657        33.91610        -0.35037
C         55.07560        35.97900         0.36632
C         53.87226        35.32613        -0.04228
C         55.03578        37.35602         0.74927
C         53.79783        38.06428         0.74503
C         54.96162        40.11001         1.48984
C         53.75874        39.44587         1.10614
C         54.90599        41.48055         1.87051
C         53.69485        42.20258         1.81271
C         54.85096        44.32392         2.32662
C         53.68444        43.63740         2.02484
C         54.83910        45.79792         2.39806
C         53.75697        46.46383         1.59093
C         54.94782        48.67211         1.91687
C         53.74388        47.96438         1.71474
C         54.91506        50.08654         1.81528
C         53.76070        50.75326         1.44550
C         57.71002        24.63764        -1.00076
C         56.42288        25.29761        -1.05399
C         57.65227        27.50881        -1.49053
C         56.33451        26.73766        -1.54248
C         57.62608        29.00108        -1.27654
C         56.34739        29.67694        -0.95880
C         57.60764        31.75895        -0.33123
C         56.37685        31.06888        -0.64174
C         57.57328        33.13670         0.06604
C         56.34350        33.87247         0.04290
C         57.51454        35.91688         0.79608
C         56.30841        35.25209         0.39519
C         57.48496        37.30195         1.15325
C         56.24204        38.02695         1.14146
C         57.43675        40.07321         1.85816
C         56.20798        39.39334         1.51706
C         57.43336        41.45930         2.17612
C         56.12792        42.12443         2.37930
C         57.36606        44.38439         2.61299
C         56.09914        43.62334         2.63742
C         57.37169        45.75387         2.66461
C         56.11942        46.54598         2.62731
C         57.43910        48.56143         2.16094
C         56.19883        47.96781         2.21188
C         58.88693        25.30657        -1.02853
C         60.10297        27.50853        -0.73440
C         58.94241        26.76450        -1.26281
C         60.09588        28.84388        -0.57240
C         58.92413        29.69514        -0.88302
C         60.00220        31.71840         0.13678
C         58.84464        31.06324        -0.31323
C         59.96876        33.04981         0.52545
C         58.77030        33.79140         0.47828
C         59.91492        35.87255         1.23898
C         58.73846        35.19374         0.84123
C         59.89283        37.21491         1.55756
C         58.69033        37.96008         1.51629
C         59.86733        40.08905         2.07700
C         58.67514        39.37344         1.82742
C         59.84935        41.45866         2.28448
C         58.63444        42.16724         2.34934
C         59.82017        44.37352         2.98113
C         58.66851        43.68353         2.28792
C         59.81678        45.72145         3.07100
C         58.62966        46.48514         2.70758
C         58.63574        47.84612         2.49001
O         30.09277        23.56210        -0.01007
O         34.21743        31.20289        -1.98124
O         55.98760        42.65808         3.74715
O         40.25474        49.92418         1.22187
O         50.76515        31.64426         0.85147
O         55.14030        46.33345         3.71687
O         36.85779        33.24047        -2.72904
O         39.61957        22.64186        -2.35127
O         42.39947        45.17838         2.35227
O         44.94393        45.14332         2.58366
O         33.95735        35.72449         1.18154
O         34.39538        26.81445        -1.56375
O         46.22777        51.94247        -2.71359
O         51.64751        34.92778        -1.96983
O         25.24770        27.20967         3.93991
O         43.40244        29.06711        -2.57826
O         43.93862        26.05462         0.70151
O         35.11544        25.10985         1.46299
O         44.32043        37.34065         1.07260
O         44.72192        36.19126        -2.27456
O         46.06017        49.52356        -1.85908
O         24.79055        42.20836         1.97237
O         35.86861        51.22005         0.74065
O         40.83157        33.52718        -2.90121
O         49.85291        45.16408         3.14593
O         35.60424        38.03106        -2.28612
O         58.44426        29.69027        -2.27019
O         58.51209        27.15402        -2.62195
O         29.85341        48.78457         0.95110
O         28.68413        46.33276         1.28613
O         30.17827        41.57995        -2.04669
H         30.99281        41.12877        -2.35659
O         54.16873        25.44319         1.06253
H         53.25720        25.52653         1.44856
O         52.48568        27.42556        -2.55584
H         53.36356        27.63380        -2.94641
O         36.12173        35.63842        -3.09025
H         36.54554        34.89343        -3.57914
O         54.12036        46.17989         0.19207
H         53.44143        46.59491        -0.38114
O         44.03737        42.91305        -1.12313
H         43.99440        42.15001        -1.73706
O         48.88561        29.70736         1.34702
H         49.60565        30.33647         1.60412
O         43.04453        22.88774         0.87103
H         42.47325        23.50320         1.37626
O         30.84683        33.27920         2.57565
H         30.99709        34.22807         2.77720
O         45.40397        24.95845        -2.39311
H         44.76489        24.38475        -2.88241
O         51.47145        25.28265         1.30422
H         51.19423        24.38048         1.57677
O         32.48894        49.43851         0.89999
H         33.30102        49.33213         1.45893
O         27.63975        28.37849        -0.04116
H         27.58829        29.17171        -0.61452
O         50.14216        32.86975        -2.55583
H         50.44716        33.68273        -3.02093
O         58.87588        43.92855         0.84305
H         58.99156        44.89619         0.72521
O         46.33527        25.09527         1.17563
H         45.50190        25.54157         1.46400
O         37.07584        23.05202        -2.36043
H         37.84112        23.13787        -2.97604
O         28.68484        27.95193         3.43856
H         28.61405        27.18083         4.03891
O         33.33988        49.69003        -2.69498
H         33.29446        50.47109        -3.28880
O         46.22557        43.99368        -0.37264
H         47.01078        43.57962        -0.78699
O         29.89238        45.99905        -2.14680
H         30.38088        46.75530        -2.56443
O         44.18659        33.81944        -3.12189
H         44.62641        34.66013        -3.39340
O         39.57430        17.82523         1.37358
H         40.43873        17.35996         1.37384
O         39.05002        39.95797        -2.47986
H         38.29770        39.50857        -2.92266
O         56.01800        26.59997        -2.96892
H         56.88557        26.56437        -3.43932
O         30.17120        51.24636         0.38522
H         30.09183        50.61396         1.14115
O         43.77683        22.69505        -2.71331
H         44.34176        22.06556        -3.20989
O         35.06995        48.96946         1.61316
H         35.58196        49.76300         1.90943
O         31.35816        48.19196        -2.34442
H         32.23420        48.35646        -2.77697
O         46.03795        42.01699         2.70434
H         46.08386        41.05853         2.90698
H         22.28560        26.96147         2.48201
H         22.29803        29.39149         2.38289
H         22.30962        31.28847         2.60395
H         22.23941        33.67247         2.17259
H         22.15034        35.48134         1.64072
H         22.08848        37.87764         1.25628
H         22.04503        39.67836         0.54180
H         21.95454        42.07120         0.22636
H         21.93607        44.06087         0.25279
H         21.92565        46.47755        -0.25327
H         25.71051        23.57155         2.24312
H         23.57646        24.74497         2.46935
H         25.25582        49.83997        -0.83263
H         23.14243        48.59233        -0.62120
H         27.48531        22.76711         2.90970
H         26.95155        50.43568        -1.82279
H         29.52901        21.50028         2.55009
H         29.01230        51.61931        -2.23647
H         33.15452        19.23181         1.49670
H         31.06687        20.43480         1.84830
H         32.99686        53.90268        -2.42522
H         30.82288        52.85683        -1.98683
H         34.75368        18.30855         1.20476
H         34.65096        54.84691        -2.43704
H         36.83079        17.09415         0.75921
H         36.79426        55.90418        -2.84020
H         40.22537        14.98450        -1.35125
H         38.14964        16.15386        -0.69158
H         40.65679        57.84104        -3.33184
H         38.47373        56.74629        -3.07677
H         42.73938        14.91757        -1.27860
H         43.09732        57.81083        -3.11595
H         44.88968        16.11019        -1.33920
H         45.18658        56.63100        -2.55393
H         48.65099        18.34004        -1.26597
H         46.57312        17.08622        -1.26264
H         48.74006        54.61785        -1.08436
H         46.74214        55.75441        -1.80714
H         50.26187        19.31271        -1.25829
H         50.31672        53.74462        -0.47695
H         52.35061        20.52754        -1.11580
H         52.28002        52.67385         0.46897
H         56.08950        22.57428        -1.00098
H         53.97292        21.42727        -0.98745
H         55.82562        50.66902         2.01133
H         53.79436        51.84664         1.34841
H         57.73290        23.55760        -0.79736
H         57.53774        49.61956         1.88042
H         59.83494        24.77009        -0.87604
H         60.98728        26.92584        -0.43442
H         60.98446        29.32131        -0.13583
H         60.96614        31.19374         0.15524
H         60.90598        33.51964         0.84882
H         60.87310        35.34036         1.29187
H         60.83286        37.69717         1.85444
H         60.83795        39.57738         2.05007
H         60.80344        41.99279         2.38931
H         60.70782        43.80155         3.28682
H         60.69151        46.26557         3.45808
H         59.58475        48.40004         2.52892
