         280
 CSIRO Nanostructure Databank - Neutral Graphene Oxide Data Set
C         30.31608        31.73898         0.06461
C         30.42758        32.98628         0.15043
C         30.48128        36.01392         0.80851
C         30.33811        37.41507         0.60542
C         30.39584        40.44533         0.49612
C         30.46213        41.68854         0.65519
C         32.50552        28.89459        -0.60867
C         31.43253        29.50738        -0.60193
C         32.60603        31.68628        -0.95298
C         30.94988        30.85860        -0.93337
C         32.61965        33.22833        -0.92861
C         31.49324        33.89234        -0.11181
C         32.76420        35.98022        -0.08423
C         31.55366        35.26059         0.13927
C         32.86048        37.41933         0.39545
C         31.49181        38.08793         0.32769
C         32.76327        40.28229         0.22357
C         31.44020        39.53385        -0.11938
C         32.86629        41.76748         0.48037
C         31.57645        42.54188         0.65574
C         32.94340        44.52508         0.69551
C         31.85543        43.91724         0.75478
C         35.34846        27.26688         0.05229
C         35.09365        28.72065         0.12894
C         33.83629        29.43655        -0.25978
C         35.17131        31.62436        -0.60574
C         33.85698        30.89605        -0.71681
C         35.13747        33.11281        -0.49291
C         33.96048        33.82959        -0.51048
C         35.17125        36.01681        -0.49354
C         33.96739        35.28841        -0.36673
C         35.16249        37.45329        -0.59251
C         33.99674        38.14166        -0.31484
C         35.22949        40.40249        -0.51809
C         33.95261        39.61820        -0.40124
C         35.33048        41.78456         0.03298
C         34.16770        42.48259         0.26500
C         35.38244        44.29752         1.44277
C         34.32573        44.02356         0.37529
C         35.70252        45.75110         1.68171
C         37.82846        27.27128         0.20359
C         36.50057        26.79353         0.19422
C         37.76439        28.74687        -0.20648
C         36.46396        29.47169         0.33489
C         37.65603        31.73704         0.15801
C         36.43321        30.90214        -0.22191
C         37.60254        33.09864        -0.55167
C         36.42027        33.79046        -0.54760
C         37.64865        36.00189        -0.96364
C         36.46809        35.28618        -0.34079
C         37.71495        37.49039        -0.68694
C         36.38564        38.15556        -1.19440
C         37.79798        40.32184        -0.62138
C         36.47700        39.66454        -0.89246
C         37.81559        41.60508         0.12267
C         36.65797        42.34600         0.35686
C         37.96347        44.21313         1.35388
C         36.73657        43.64051         1.02948
C         38.12217        45.56841         1.89307
C         36.82163        46.16374         2.00997
C         40.15002        24.70792         1.47135
C         39.17211        25.31822         0.99785
C         40.33299        27.33249         0.55455
C         39.02909        26.66619         0.55923
C         40.39991        28.69668         0.08394
C         39.05623        29.49110         0.27857
C         39.90951        31.64284        -0.73709
C         38.90992        30.94072        -0.18098
C         40.06258        33.12013        -0.52767
C         38.83893        33.71330        -1.20521
C         40.21487        35.90495        -1.13288
C         38.89095        35.22803        -1.24602
C         40.23297        37.31571        -1.08508
C         38.97080        38.14905        -1.33462
C         40.25184        40.10333        -0.43154
C         39.06047        39.54383        -0.73349
C         40.42376        41.27558         0.50393
C         39.08645        41.99073         0.77343
C         40.58029        43.92483         1.68839
C         39.17243        43.36849         1.39049
C         40.62848        45.43828         1.92187
C         39.34484        46.10554         2.22169
C         40.61733        48.17780         2.58275
C         39.60893        47.45157         2.63510
C         42.60710        24.88272         2.26098
C         41.43361        25.31091         1.62398
C         42.76005        27.38660         1.19447
C         41.52061        26.66426         1.07412
C         42.96546        28.61827         0.33815
C         41.66642        29.29449        -0.03977
C         42.81159        31.52453        -0.21504
C         41.84129        30.61205        -0.58283
C         42.63028        33.05744        -0.23489
C         41.42505        33.64186        -1.04050
C         42.66335        35.84983        -1.04551
C         41.42750        35.17381        -1.01602
C         42.69734        37.27153        -1.07369
C         41.47139        37.97346        -1.01549
C         42.78352        40.15428        -0.83628
C         41.47763        39.44210        -0.93072
C         42.83751        41.52955        -0.30406
C         41.61227        42.18442         0.17227
C         43.01676        44.09757         0.95596
C         41.66792        43.43932         0.72881
C         42.91165        45.62973         0.93932
C         41.82232        46.12699         1.90862
C         43.14577        48.23960         1.94840
C         41.98433        47.53290         2.63046
C         43.63997        25.59429         2.40076
C         45.03990        27.74084         2.23293
C         43.87528        26.88804         1.90571
C         45.15018        29.14214         1.65680
C         44.01264        29.63575         0.82689
C         45.11424        31.91501         0.74835
C         43.94836        30.96808         0.49539
C         45.16667        32.94766        -0.42487
C         43.91018        33.74645        -0.61354
C         45.13477        35.79078        -1.26952
C         43.93258        35.10388        -0.98362
C         45.14331        37.23680        -1.70526
C         43.95555        37.99495        -1.14637
C         45.27629        40.10070        -1.01505
C         44.03103        39.36500        -0.95672
C         45.27987        41.48160        -0.74044
C         44.06521        42.15301        -0.31194
C         45.50267        44.04878         0.48610
C         44.11815        43.63613        -0.02829
C         45.47393        45.55743         0.83244
C         44.32402        46.24063         1.09486
C         44.12465        47.57241         1.56522
C         47.45632        27.90670         2.59163
C         46.39141        27.27690         2.55652
C         47.87077        29.04510         1.74682
C         46.49015        29.93585         1.67897
C         47.51619        31.75591         0.23108
C         46.42622        31.13421         0.74649
C         47.63097        33.21134         0.05499
C         46.35668        33.87679        -0.26974
C         47.77168        35.67236        -1.43733
C         46.41735        35.07720        -1.14104
C         47.72278        37.12286        -1.96748
C         46.50767        37.87055        -1.28749
C         47.65574        40.09338        -1.59756
C         46.50169        39.39592        -1.38422
C         47.80373        41.53662        -1.16052
C         46.50795        42.26206        -0.87095
C         47.85225        44.37965        -0.67379
C         46.57567        43.58883        -0.50985
C         47.90123        45.49023         0.31058
C         46.82988        45.97804         0.72313
C         50.37616        29.51235         2.60431
C         49.25317        29.63973         1.66063
C         50.08065        32.08339         1.53255
C         49.42936        31.00230         1.04699
C         50.05433        33.48981         0.87893
C         48.94675        33.87071        -0.13343
C         50.24134        35.87398        -0.72454
C         48.99931        35.10068        -0.76260
C         50.35835        37.29977        -1.28067
C         49.04791        37.91242        -1.81068
C         50.14832        40.22004        -1.48145
C         48.95263        39.40151        -1.80414
C         50.14527        41.57971        -2.09549
C         48.80341        42.34163        -2.01878
C         50.38953        43.94120        -0.86067
C         49.04037        43.72146        -1.33553
C         51.07847        30.44032         3.01575
C         52.30982        32.57402         2.19826
C         51.06361        31.92971         2.76054
C         52.38294        33.45350         1.33754
C         51.43539        33.86118         0.24600
C         52.36176        36.32488         0.06644
C         51.37766        35.31343        -0.15604
C         52.43097        37.56605         0.01854
C         51.09071        38.27201        -0.25995
C         52.14727        40.66686        -0.34435
C         51.20925        39.69585        -0.77881
C         52.66854        41.74168        -0.01656
C         52.66508        43.14580         0.14382
C         51.47937        43.77404        -0.31662
O         51.30171        37.23987        -2.41313
O         40.86548        30.98304        -1.49937
O         46.85141        33.98745         1.08693
O         48.75617        28.68952         0.68604
O         37.14740        40.40419        -1.95996
O         36.10340        31.07823        -1.61449
O         40.94672        40.78126         1.73220
O         34.29143        40.27342        -1.65944
O         37.99371        35.68965        -2.34214
O         51.13121        42.05955        -2.62422
O         47.14897        34.75900        -2.39555
O         48.67948        31.07739        -0.12817
O         49.23526        38.67439        -3.06239
O         33.29191        31.11017        -2.07397
O         48.28608        44.76032        -2.01017
O         34.16434        29.23016         1.13615
O         42.01641        40.12124        -2.12085
O         44.66986        28.89301         3.04905
O         32.96043        40.72952         1.57095
O         38.88057        42.19005         2.20698
O         44.89414        32.59803         2.00054
H         45.38527        32.09091         2.69486
O         42.42991        33.42062         1.17352
H         43.25896        33.18660         1.67544
O         39.86446        33.42562         0.87519
H         40.74114        33.37859         1.33983
O         51.63114        33.06675        -0.91230
H         52.40724        33.39752        -1.40922
O         33.24143        37.35267         1.81101
H         34.12994        36.94078         1.86138
O         43.98176        44.29684        -1.30156
H         43.06782        44.16692        -1.63119
O         48.47873        41.45282         0.14503
H         47.80504        41.24148         0.82792
O         45.37816        32.14923        -1.62202
H         45.39047        32.75059        -2.39770
O         30.40171        30.98468        -2.18062
H         30.85452        30.38211        -2.80448
O         37.59175        32.03829         1.57265
H         38.37941        32.61118         1.75537
O         31.29024        39.58299        -1.52920
H         30.65266        38.88965        -1.80158
O         44.94167        37.29762        -3.13371
H         45.71534        36.85613        -3.56465
O         50.32687        38.30015         0.92807
H         50.78836        38.83791         1.60362
O         38.84587        33.24169        -2.57572
H         38.20595        33.80113        -3.07446
O         46.67765        37.60881         0.13049
H         45.90831        37.98181         0.61163
O         32.40993        33.65572        -2.28994
H         32.91849        33.04297        -2.86708
O         43.43991        43.73721         2.29403
H         42.61983        43.57085         2.84335
O         42.41328        46.05472        -0.34845
H         42.44603        47.03546        -0.37411
O         36.25155        37.98891        -2.60749
H         36.72962        38.74072        -3.03213
O         39.10242        29.57648         1.71735
H         38.34961        30.13893         2.02759
O         34.93951        43.68826         2.63931
H         35.61181        43.82155         3.33900
O         45.88551        43.33257         1.67243
H         45.13719        43.40291         2.31932
O         42.33265        47.27487         3.96043
H         42.39015        48.11949         4.45125
O         53.65082        43.83518         0.71236
H         54.39271        43.25212         0.96775
O         29.59642        35.34157         1.50430
H         29.70622        34.36707         1.38645
O         50.74669        36.30267        -3.36721
H         50.20119        36.88419        -3.95425
O         48.29797        42.53963        -3.33290
H         47.98840        43.47393        -3.40042
O         41.60918        33.24497        -2.40810
H         40.72784        33.24978        -2.85445
O         36.74729        35.35623         1.12667
H         36.14457        34.72824         1.58114
O         43.55253        28.08456        -0.90404
H         43.64083        28.82769        -1.53952
O         37.82562        37.75373         0.72255
H         37.45258        36.99291         1.22900
O         47.48798        37.00199        -3.37609
H         47.85209        37.81327        -3.80745
O         34.79075        44.54143        -0.85263
H         34.15945        44.32148        -1.56774
O         38.83193        38.25255        -2.75940
H         38.61749        37.35117        -3.09880
O         40.95533        43.31300         2.96275
H         40.84821        42.32173         2.80553
O         49.85699        34.43266         1.94763
H         48.97637        34.27141         2.34890
O         37.69629        28.82125        -1.63194
H         38.52643        28.47474        -2.01870
O         46.54523        30.58010         2.98481
H         46.03218        30.00027         3.60479
O         50.58086        32.63673         3.86378
H         51.28155        32.70291         4.54312
O         36.59032        29.55081         1.75965
H         35.69012        29.64335         2.14765
