         424
 CSIRO Nanostructure Databank - Neutral Graphene Oxide Data Set
C          1.35390         1.89300         0.54562
C          1.29348         3.32028         0.45290
C          2.47572         1.21488         0.20456
C          2.40104         4.08771         0.11340
C          1.18760         6.25944         0.37577
C          1.16276         7.69630         0.23149
C          2.33317         5.54659         0.14164
C          2.29601         8.44178         0.15394
C          1.11968        10.64754         0.50026
C          1.15919        11.98894         0.64977
C          2.23878         9.91191        -0.19237
C          2.33717        12.76224         0.30227
C          1.15820        14.94349         0.60173
C          1.17267        16.34849         0.73193
C          2.32154        14.17965         0.40254
C          2.32847        17.10122         0.50172
C          2.40014        18.52388         0.55810
C          3.66831         1.92654        -0.36177
C          3.65635         3.42608        -0.16535
C          4.96070         1.32704         0.10418
C          4.85997         4.11368        -0.33122
C          3.55554         6.32358        -0.20151
C          3.62301         7.74124         0.34682
C          4.84131         5.59688        -0.44418
C          4.83832         8.51750        -0.10456
C          3.55600        10.64593        -0.06067
C          3.53784        12.04289        -0.01606
C          4.80005         9.91765        -0.16858
C          4.75276        12.79587        -0.50931
C          3.63443        14.91620         0.52867
C          3.53470        16.35954         0.08750
C          4.83676        14.22451        -0.04811
C          4.81711        17.10826        -0.11106
C          3.58374        19.21629         0.39011
C          4.83952        18.56267         0.14448
C          6.15424         2.00208        -0.01059
C          6.12632         3.42826        -0.38452
C          7.35705         1.30975         0.44897
C          7.30735         4.21072        -0.53659
C          6.10045         6.36224        -0.33117
C          6.08720         7.79035        -0.23717
C          7.31036         5.65669        -0.40894
C          7.31516         8.48181        -0.28213
C          6.04190        10.66885        -0.23067
C          6.04994        12.04571        -0.30721
C          7.33871         9.94787         0.05311
C          7.28974        12.78964        -0.33452
C          6.03617        14.91279        -0.14843
C          6.08229        16.35561        -0.05460
C          7.28545        14.18946        -0.32548
C          7.28626        17.04204        -0.08053
C          6.05666        19.21405         0.16645
C          7.30443        18.51366        -0.05528
C          8.59673         1.55646        -0.10457
C          8.56486         3.60695        -0.77276
C          9.91290         1.24586         0.31836
C          9.81205         4.21307        -0.52169
C          8.55712         6.35297        -0.42849
C          8.54864         7.78352        -0.40859
C          9.80611         5.65328        -0.45485
C          9.78129         8.48704        -0.51864
C          8.54126        10.68507        -0.46113
C          8.54428        12.06724        -0.47012
C          9.75319         9.93375        -0.92746
C          9.77694        12.81212        -0.62844
C          8.52375        14.92780        -0.32943
C          8.51630        16.31223        -0.17384
C          9.77630        14.21006        -0.50790
C          9.79162        17.08998         0.01079
C          8.47753        19.19238        -0.27508
C          9.72872        18.45443        -0.67990
C         11.04563         2.03264        -0.02343
C         11.02417         3.45929        -0.35316
C         12.30696         1.40162         0.14416
C         12.25221         4.18934        -0.31479
C         11.02702         6.35555        -0.48236
C         11.01650         7.79797        -0.54918
C         12.26615         5.62656        -0.45536
C         12.23764         8.51892        -0.65533
C         11.03665        10.66967        -0.65654
C         11.03612        12.08156        -0.67479
C         12.25470         9.94562        -0.62731
C         12.26578        12.77717        -0.68755
C         11.00430        14.94974        -0.56231
C         11.03080        16.33363        -0.39745
C         12.26439        14.24583        -0.99851
C         12.24545        17.06970        -0.45530
C         11.01384        19.20717        -0.45209
C         12.22497        18.52055        -0.39095
C         13.52186         2.07841         0.00084
C         13.50159         3.51099        -0.17386
C         14.76392         1.38651         0.04348
C         14.72255         4.22384        -0.17462
C         13.48925         6.32916        -0.50017
C         13.51623         7.77956        -0.92273
C         14.72119         5.64854        -0.33076
C         14.74710         8.52724        -0.46838
C         13.49518        10.66013        -0.53603
C         13.49424        12.08008        -0.56096
C         14.73634         9.94085        -0.40758
C         14.73177        12.80722        -0.41205
C         13.51748        14.95757        -0.56659
C         13.49509        16.37042        -0.46971
C         14.72574        14.24246        -0.40468
C         14.71644        17.09254        -0.32374
C         13.47384        19.21337        -0.31588
C         14.69571        18.52754        -0.27856
C         15.98172         2.06872        -0.02059
C         15.97032         3.52005        -0.06024
C         17.22632         1.37238        -0.04423
C         17.17469         4.22680         0.00132
C         15.95464         6.37289        -0.26162
C         15.95507         7.81251        -0.28593
C         17.17665         5.67128        -0.05036
C         17.17460         8.52690        -0.08619
C         15.95037        10.66550        -0.20430
C         15.94680        12.10370        -0.18865
C         17.17621         9.95325        -0.04873
C         17.15974        12.81944         0.04476
C         15.94881        14.95990        -0.20393
C         15.94791        16.38891        -0.21800
C         17.16548        14.25726         0.02931
C         17.17650        17.10972        -0.11562
C         15.94841        19.21918        -0.23015
C         17.15044        18.54106        -0.17709
C         18.44752         2.04916        -0.09495
C         18.43564         3.50868        -0.02234
C         19.69954         1.36716        -0.06323
C         19.61879         4.19938         0.02518
C         18.38460         6.38487         0.11487
C         18.39831         7.80522         0.10283
C         19.61955         5.61304         0.51641
C         19.60686         8.52937         0.32359
C         18.39945        10.66819         0.14558
C         18.39072        12.09799         0.21723
C         19.62680         9.94670         0.30963
C         19.60340        12.80329         0.41074
C         18.36506        14.99504         0.24186
C         18.39631        16.39823         0.11678
C         19.57016        14.26803         0.77105
C         19.64802        17.13137         0.22653
C         18.43198        19.33780        -0.22705
C         19.68783        18.53512         0.02388
C         20.92540         2.04754        -0.13116
C         20.88728         3.53650        -0.41547
C         22.16952         1.38760        -0.09673
C         22.14091         4.27445        -0.03820
C         20.90536         6.35293         0.30348
C         20.84258         7.78178         0.60736
C         22.13369         5.67083         0.17808
C         22.15372         8.55227         0.68801
C         20.86611        10.67386         0.36761
C         20.84037        12.11321         0.37560
C         22.11719         9.99997         0.43574
C         22.06095        12.84478         0.36888
C         20.87148        14.99330         0.55626
C         20.87829        16.42846         0.44728
C         22.06287        14.25282         0.50859
C         22.10075        17.14755         0.42675
C         20.90083        19.22216        -0.00460
C         22.14004        18.54678         0.17064
C         23.40761         2.07916        -0.19868
C         23.37720         3.55558        -0.31732
C         24.65259         1.44462        -0.21754
C         24.69601         4.31816        -0.17467
C         23.39944         6.40650         0.27635
C         23.40092         7.81643         0.45530
C         24.63228         5.73244         0.18880
C         24.60954         8.54635         0.39104
C         23.33944        10.67949         0.28623
C         23.31666        12.14320        -0.07155
C         24.57394         9.98289         0.31944
C         24.59888        12.86488         0.25916
C         23.35244        14.94702         0.70074
C         23.36759        16.46063         0.70009
C         24.62231        14.24769         0.44119
C         24.64732        17.14594         0.46106
C         23.38974        19.22628         0.09668
C         24.63084        18.55470         0.21425
C         25.89680         2.15556        -0.11885
C         25.92384         3.56621         0.07398
C         27.14141         1.49321        -0.19109
C         27.12095         4.24281         0.43669
C         25.87330         6.40369         0.40225
C         25.85835         7.85163         0.40899
C         27.08021         5.68300         0.53463
C         27.06556         8.57890         0.33918
C         25.81068        10.70199         0.22311
C         25.81461        12.13480         0.20601
C         27.04103        10.00248         0.23106
C         27.04715        12.84160         0.18322
C         25.85190        14.97844         0.47430
C         25.86096        16.43708         0.51525
C         27.05576        14.26737         0.29042
C         27.10875        17.15146         0.52823
C         25.87863        19.22111         0.05514
C         27.11036        18.57961         0.25061
C         28.36858         2.14015         0.06321
C         28.34931         3.49806         0.54120
C         29.55734         1.37676        -0.33836
C         29.57468         4.24608         0.91621
C         28.27248         6.50468         0.99072
C         28.32011         7.87900         0.37872
C         29.60225         5.75944         0.94102
C         29.51538         8.53632         0.16462
C         28.27341        10.72195         0.15146
C         28.26592        12.11473         0.08897
C         29.52899         9.98082         0.05190
C         29.55122        12.85295        -0.19042
C         28.31775        14.96828         0.36368
C         28.30825        16.37539         0.63572
C         29.53709        14.28511         0.27144
C         29.56264        16.95206         0.93949
C         28.31925        19.33019        -0.07889
C         29.56887        19.03680         0.43959
C         30.82740         1.54572         0.15573
C         30.90049         3.61613         0.78756
C         32.12078         1.16195        -0.32840
C         32.04309         4.20651         0.31893
C         30.82250         6.41368         0.43052
C         30.79266         7.82113         0.13596
C         32.02328         5.66729         0.15022
C         31.94755         8.50394        -0.21498
C         30.71957        10.66220        -0.00065
C         30.72445        12.10314         0.41160
C         31.98781         9.99405        -0.42715
C         32.04263        12.81111         0.25055
C         30.79187        14.94679         0.40853
C         30.79759        16.35668         0.65380
C         32.02748        14.23475         0.38090
C         32.02914        17.12069         0.59139
C         30.89022        19.35400         0.00242
C         32.03064        18.56224         0.27105
C         33.25704         1.96769        -0.14407
C         33.26189         3.42451         0.07053
C         34.52286         1.33253        -0.39171
C         34.44486         4.12288        -0.15643
C         33.18015         6.32230        -0.24079
C         33.24294         7.80237        -0.46004
C         34.44811         5.58253        -0.53914
C         34.37291         8.42389         0.40587
C         33.23875        10.65114         0.14993
C         33.22559        12.07906         0.29613
C         34.42147         9.93349         0.29232
C         34.47029        12.77133         0.79256
C         33.26324        14.96273         0.50776
C         33.23112        16.40170         0.55576
C         34.48512        14.25456         0.51694
C         34.52896        17.13376         0.77056
C         33.29211        19.14229        -0.06535
C         34.51575        18.50184         0.13049
C         35.72210         2.01554        -0.41025
C         35.71043         3.46236        -0.32961
C         36.98851         1.32516        -0.48261
C         36.90182         4.19026        -0.38629
C         35.69248         6.33720        -0.09486
C         35.68262         7.71433         0.13523
C         36.92469         5.61906        -0.17753
C         36.90972         8.44046         0.21674
C         35.69385        10.62996         0.37635
C         35.73340        12.03083         0.45484
C         36.92297         9.87701         0.29152
C         36.96309        12.75020         0.33573
C         35.74334        14.95024         0.43897
C         35.76648        16.33371         0.44545
C         36.98710        14.17990         0.30322
C         37.06937        17.08604         0.53050
C         35.73425        19.12848        -0.17772
C         36.98261        18.48238        -0.05715
C         38.17270         2.00755        -0.54340
C         38.18261         3.50193        -0.78119
C         39.44433         1.32192        -0.50730
C         39.42186         4.18228        -0.25552
C         38.14821         6.30646        -0.00096
C         38.14199         7.72027         0.18144
C         39.40963         5.57049         0.00326
C         39.37194         8.44257         0.30152
C         38.15792        10.56987         0.23831
C         38.18008        12.01246         0.19888
C         39.38313         9.82813         0.25361
C         39.39767        12.70887        -0.01902
C         38.20452        14.85747         0.05833
C         38.25228        16.30627         0.00563
C         39.40194        14.10237        -0.13429
C         39.39828        16.99360        -0.33394
C         38.16934        19.14508        -0.35001
C         39.41772        18.45144        -0.35453
C         40.60923         2.00629        -0.35186
C         40.62085         3.44552        -0.15220
C         41.81143         4.10858         0.20506
C         40.62451         6.22796         0.30614
C         40.68371         7.71989         0.53715
C         41.80938         5.48464         0.41347
C         41.77518         8.38102        -0.27450
C         40.72033        10.55016         0.28854
C         40.65346        11.93409        -0.36706
C         41.78424         9.71083        -0.39153
C         41.90517        12.72699        -0.07227
C         40.66307        14.78373        -0.52371
C         40.65154        16.28964        -0.68755
C         41.91968        14.05806        -0.20970
C         41.89841        17.07213        -0.66468
C         40.62657        19.13298        -0.46473
C         41.86444        18.43180        -0.55199
O          3.97772        16.67217        -1.26039
O          8.56171         2.32190        -1.29960
O         29.67760         4.98489         2.20916
O         30.94146         2.33457         1.32129
O         21.45065         8.13714         1.91950
O         40.58071        15.37912        -1.86644
O         23.36894        15.69244         1.96729
O          4.00246         6.11689        -1.56565
O         29.55907        18.19216         1.57386
O         24.09905         4.05296        -1.51016
O         23.25478        12.17918        -1.55775
H         24.00794        11.64455        -1.88956
O          7.46118         9.97816         1.53919
H          7.52565        10.92214         1.80072
O         38.25671         3.66121        -2.25007
H         37.39723         3.36186        -2.61709
O          9.64060         9.88515        -2.40899
H         10.47435         9.49510        -2.75108
O         19.38378        14.27654         2.25303
H         20.21958        13.95024         2.65156
O         29.72926        12.87222        -1.63461
H         28.97716        13.36196        -2.02708
O          3.81272         7.55827         1.79421
H          3.91832         8.44469         2.19948
O         19.52995         5.49503         1.99926
H         19.75501         6.37445         2.37652
O         18.36823        20.45016         0.68168
H         18.34127        20.09534         1.59387
O         34.59578        17.39236         2.23590
H         34.44732        16.53230         2.68520
O         33.64869         8.05629        -1.85861
H         32.92614         7.71436        -2.42923
O         34.58771         5.53531        -2.01435
H         34.66511         6.47407        -2.30944
O          9.90903        17.36547         1.43922
H          9.96854        16.50732         1.90823
O         34.36620        12.67323         2.28077
H         33.52182        13.10647         2.53353
O          3.61112         1.70502        -1.82664
H          4.33661         2.23283        -2.22508
O         20.86556         3.64439        -1.89616
H         21.75175         3.37056        -2.22097
O         13.62587         7.73762        -2.40995
H         14.45048         7.24926        -2.62211
O         33.99734         8.12309         1.77990
H         34.64822         8.55281         2.37352
O         27.98292         6.80379         2.39697
H         28.36591         6.05882         2.92001
O         37.32563        17.27617         1.96683
H         36.47413        17.59702         2.35694
O          1.92797         9.95090        -1.63111
H          2.06947        10.87246        -1.93775
O         40.60966        11.70772        -1.80455
H         40.57589        12.58479        -2.24346
O          4.54621        12.87981        -1.97125
H          5.29466        13.39337        -2.34441
O          9.63669        18.19309        -2.11966
H          9.52093        19.05323        -2.57462
O         30.48838        12.10411         1.86035
H         31.12885        11.48673         2.27279
O         41.02930         7.93334         1.95345
H         40.33830         7.49526         2.49411
O         41.09657        10.73670         1.67326
H         41.19666         9.83074         2.05954
O         12.26653        14.31989        -2.48269
H         12.13472        15.26258        -2.72227
O          3.88321        15.00019         1.98143
H          3.81099        14.09430         2.34982
O         32.08645        10.24868        -1.87445
H         32.93596         9.84370        -2.16931
H          0.46875         1.35549         0.91570
H          0.34624         3.80933         0.71727
H          2.51560         0.11782         0.27231
H          0.23290         5.75196         0.57240
H          0.17604         8.17205         0.13376
H          0.21277        10.09565         0.78624
H          0.29639        12.50908         1.09004
H          0.18081        14.44134         0.63881
H          0.22942        16.86679         0.96026
H          1.48076        19.08377         0.78724
H          4.96744         0.27224         0.41867
H          3.58379        20.31166         0.49402
H          7.24576         0.57269         1.25755
H          6.09093        20.30275         0.32653
H         10.08269         0.34707         0.93076
H          8.47636        20.29419        -0.29200
H         12.32414         0.32324         0.36212
H         11.01199        20.30850        -0.47323
H         14.75826         0.28864         0.11655
H         13.47108        20.31336        -0.28619
H         17.21490         0.27185        -0.02889
H         15.95214        20.31912        -0.24126
H         19.69923         0.27026         0.03586
H         18.51229        19.78941        -1.25582
H         22.18688         0.29179         0.01295
H         20.89721        20.30826        -0.17629
H         24.68960         0.34466        -0.23205
H         23.38831        20.31087        -0.08817
H         27.15836         0.43011        -0.47340
H         25.87207        20.28934        -0.20820
H         29.40459         0.65966        -1.15913
H         28.21981        20.12870        -0.82993
H         32.25081         0.19143        -0.83254
H         31.04584        20.27803        -0.57713
H         34.53129         0.23866        -0.51428
H         33.29641        20.15923        -0.48831
H         36.98900         0.22583        -0.41774
H         35.71440        20.16545        -0.55056
H         39.44654         0.22269        -0.56167
H         38.15066        20.21165        -0.62303
H         41.56746         1.46863        -0.30230
H         42.74437         3.53546         0.30379
H         42.74475         5.99771         0.67768
H         42.54525         7.75705        -0.75219
H         42.56949        10.21826        -0.97136
H         42.82451        12.18284         0.18993
H         42.84807        14.62896        -0.06032
H         42.85323        16.55382        -0.82835
H         40.62968        20.23210        -0.47358
H         42.80031        19.00800        -0.57730
