         430
 CSIRO Nanostructure Databank - Neutral Graphene Oxide Data Set
C         27.86360        27.34925         0.51918
C         27.85678        28.77427         0.50471
C         26.63759        29.49914         0.49128
C         27.85860        31.61223         0.43735
C         26.64184        30.87629         0.45604
C         27.86036        33.05945         0.36198
C         26.65604        33.79845         0.31630
C         27.86863        35.90439         0.13501
C         26.65962        35.17774         0.20876
C         27.88056        37.34654        -0.01983
C         26.68139        38.10473         0.01594
C         27.87063        40.21947        -0.25891
C         26.69560        39.50300        -0.05051
C         27.88810        41.65574        -0.41746
C         26.68693        42.36646        -0.71413
C         27.93537        44.43591        -0.92796
C         26.71122        43.72066        -0.95640
C         27.96835        45.82880        -1.22007
C         30.30500        27.33264         0.51016
C         29.04688        26.65494         0.51622
C         30.32247        28.75316         0.51670
C         29.09129        29.48083         0.50271
C         30.34122        31.62372         0.47334
C         29.09050        30.91028         0.47506
C         30.33831        33.05187         0.37944
C         29.09613        33.76420         0.31197
C         30.34030        35.90082         0.14394
C         29.09942        35.19003         0.19102
C         30.34340        37.32340        -0.01668
C         29.11671        38.02095        -0.14971
C         30.38886        40.18372        -0.10698
C         29.14326        39.47035        -0.56377
C         30.33359        41.66103         0.20082
C         29.10962        42.35868        -0.34055
C         30.38705        44.48098        -0.58390
C         29.15030        43.75403        -0.60456
C         30.39342        45.87293        -0.89425
C         29.15337        46.51822        -1.20942
C         32.77907        24.50755         0.37135
C         31.58575        25.18795         0.42156
C         32.78016        27.32242         0.52648
C         31.54778        26.60947         0.48391
C         32.77479        28.74650         0.61531
C         31.57000        29.46277         0.57213
C         32.80498        31.63063         0.54157
C         31.56663        30.91511         0.55437
C         32.80371        33.05691         0.41501
C         31.56942        33.76590         0.34448
C         32.80352        35.91848         0.23884
C         31.57247        35.19745         0.23877
C         32.79882        37.34708         0.18419
C         31.58115        38.04205         0.02969
C         32.79134        40.23596         0.53203
C         31.55212        39.49718         0.07031
C         32.83079        41.66474         0.03238
C         31.63102        42.36491        -0.12841
C         32.87076        44.44763        -0.44340
C         31.63063        43.76465        -0.37597
C         32.85208        45.95373        -0.33043
C         31.61886        46.60923        -0.89670
C         32.88378        48.68345        -1.23055
C         31.69171        47.97664        -1.23653
C         35.34400        23.07437         0.29062
C         35.27715        24.47605         0.21124
C         34.02384        25.19872         0.35978
C         35.27301        27.33711         0.37099
C         34.02301        26.60553         0.44542
C         35.29530        28.72861         0.49093
C         34.05872        29.45968         0.95284
C         35.26481        31.61463         0.51376
C         34.04417        30.92955         0.61361
C         35.27864        33.06723         0.44103
C         34.03793        33.77816         0.38554
C         35.27639        35.91881         0.32805
C         34.04122        35.20181         0.31597
C         35.28548        37.34508         0.27798
C         34.05362        38.07725         0.23952
C         35.30130        40.19368         0.19349
C         34.07007        39.48075         0.25997
C         35.33083        41.61777         0.03377
C         34.07487        42.33143        -0.11755
C         35.36879        44.39774        -0.60812
C         34.07271        43.72640        -0.36497
C         35.39256        45.90540        -0.75587
C         34.12526        46.65198        -0.70297
C         35.39963        48.70800        -1.04496
C         34.13259        48.01966        -0.98147
C         35.56841        49.94493        -1.66469
C         37.77805        23.02130         0.02208
C         36.57484        22.38479         0.27576
C         37.72261        24.46955        -0.42715
C         36.48420        25.21012         0.02753
C         37.73755        27.34133         0.06868
C         36.49634        26.61205         0.12809
C         37.74411        28.74153         0.11252
C         36.50886        29.46327         0.30785
C         37.70255        31.65229         0.07472
C         36.48532        30.87508         0.36440
C         37.76548        33.02516         0.70360
C         36.48719        33.78555         0.47297
C         37.75060        35.91989         0.50986
C         36.51111        35.20408         0.43044
C         37.75524        37.33039         0.47467
C         36.52078        38.04866         0.34278
C         37.76607        40.18007         0.38286
C         36.53174        39.47084         0.27748
C         37.79045        41.58807         0.21794
C         36.57772        42.30032        -0.00421
C         37.82187        44.45218        -0.28832
C         36.63240        43.73159        -0.25395
C         37.83677        45.89564        -0.41955
C         36.65605        46.60206        -0.52022
C         37.84571        48.80237        -0.40132
C         36.53086        48.09702        -0.25833
C         37.94673        50.04961        -1.00804
C         36.78942        50.61419        -1.63603
C         40.30867        20.22252         0.31932
C         39.11777        20.89462         0.32324
C         40.24689        23.04177         0.06203
C         39.05654        22.33759         0.13421
C         40.25293        24.47889        -0.28072
C         38.98658        25.23925        -0.14070
C         40.27551        27.34317         0.32759
C         38.99040        26.59492         0.00641
C         40.20434        28.78985        -0.07933
C         39.00936        29.45188        -0.06813
C         40.24724        31.66939         0.04803
C         39.00509        30.93180        -0.19066
C         40.23324        33.07874         0.18080
C         39.01112        33.79278         0.35893
C         40.24506        35.89578         0.55766
C         39.01516        35.19390         0.49191
C         40.22924        37.31831         1.06200
C         38.97926        38.06804         0.65404
C         40.16587        40.20424         1.19703
C         38.97211        39.44960         0.66359
C         40.16754        41.66542         0.78563
C         39.05682        42.30281         0.30079
C         40.29457        44.53447         0.29176
C         39.14667        43.71497        -0.27027
C         40.30110        45.92033         0.18171
C         39.15957        46.65883        -0.46153
C         40.31030        48.84454         0.05474
C         39.01886        48.08406         0.18587
C         40.38726        50.14166        -0.45775
C         39.21377        50.77900        -0.99858
C         40.50955        52.79204        -1.48084
C         39.30499        52.09347        -1.48172
C         42.78071        20.26458         0.21774
C         41.56147        20.91727         0.28113
C         42.81110        23.11303         0.07576
C         41.53963        22.40553         0.50446
C         42.81988        24.48459        -0.10268
C         41.54474        25.21266        -0.29501
C         42.74663        27.36231        -0.24722
C         41.53959        26.67058        -0.14215
C         42.75590        28.79295        -0.28013
C         41.45641        29.54132        -0.46865
C         42.75557        31.64664        -0.22760
C         41.52252        30.89615         0.23419
C         42.66580        33.10977        -0.35025
C         41.45141        33.82212         0.07494
C         42.72262        35.95405         0.30245
C         41.46308        35.21920         0.29650
C         42.71356        37.36967         0.58772
C         41.50703        38.07526         0.78947
C         42.68243        40.21507         0.97888
C         41.49587        39.50416         0.92401
C         42.70669        41.67320         1.21192
C         41.39910        42.42743         1.07458
C         42.75428        44.51336         0.64093
C         41.44587        43.85169         0.76644
C         42.77928        46.00504         0.51558
C         41.44252        46.67516         0.84979
C         42.82930        48.89584         0.51391
C         41.49140        48.18624         0.61118
C         42.85802        50.24552        -0.08099
C         41.65493        50.85250        -0.49645
C         42.93994        52.87875        -1.06161
C         41.69469        52.18688        -1.01304
C         44.00267        20.97467         0.15602
C         45.29470        23.10224        -0.08741
C         44.04917        22.37338         0.06282
C         45.29235        24.53150        -0.17394
C         44.04227        25.23425        -0.20125
C         45.23037        27.38743        -0.41512
C         44.00918        26.64316        -0.30451
C         45.18749        28.79749        -0.50295
C         43.95796        29.50350        -0.39708
C         45.21777        31.69346        -0.47828
C         43.93670        30.97546        -0.44458
C         45.23467        33.12931        -0.27698
C         43.97718        33.88503        -0.35722
C         45.18716        35.97720         0.14516
C         43.93741        35.29307         0.06986
C         45.15879        37.38647         0.39969
C         43.96935        38.06508         0.62281
C         45.20115        40.30002         0.87136
C         43.97692        39.47136         1.17609
C         45.21750        41.65947         1.00995
C         43.98610        42.42167         1.07196
C         45.27277        44.52893         0.73889
C         44.01334        43.79163         0.90517
C         45.27960        45.98567         0.60442
C         44.07750        46.72453         0.63971
C         45.31747        48.83760         0.42247
C         44.09117        48.12994         0.53412
C         45.32535        50.25214         0.18351
C         44.10149        50.92817        -0.17402
C         44.10401        52.26896        -0.66068
C         47.72943        23.13494        -0.23159
C         46.53818        22.43454        -0.13166
C         47.75934        24.54706        -0.27285
C         46.51469        25.25922        -0.25591
C         47.71046        27.43564        -0.39779
C         46.49611        26.69466        -0.37887
C         47.71133        28.82701        -0.59072
C         46.42486        29.54281        -0.93381
C         47.70076        31.65611        -0.13228
C         46.40730        30.99441        -0.53400
C         47.69978        33.15539        -0.29111
C         46.43729        33.84757        -0.17867
C         47.67155        35.98350         0.04570
C         46.41454        35.27840        -0.03557
C         47.68604        37.34783         0.28543
C         46.43511        38.12081         0.29144
C         47.72676        40.30965         0.72039
C         46.45273        39.59561         0.52579
C         47.75042        41.67745         0.79222
C         46.51032        42.42205         1.20832
C         47.73346        44.50967         0.26286
C         46.46799        43.84855         0.74434
C         47.76924        45.98611         0.53788
C         46.53661        46.68736         0.57498
C         47.78868        48.82419         0.52938
C         46.55070        48.12029         0.52546
C         47.75608        50.24141         0.41905
C         46.57162        50.92444         0.22287
C         50.22864        24.62840        -0.52566
C         49.00607        25.26655        -0.33961
C         50.23235        27.45742        -0.56999
C         49.00691        26.74578        -0.03645
C         50.16712        28.81964        -0.83376
C         48.92914        29.55058        -0.71815
C         50.10808        31.71936        -0.86266
C         48.93674        30.98205        -0.68685
C         50.15384        33.14513        -0.64960
C         48.89916        33.84829        -0.38736
C         50.13440        35.97486        -0.23237
C         48.92591        35.28097        -0.18483
C         50.20490        37.36963         0.08654
C         48.95729        38.04108         0.51074
C         50.21507        40.26760         0.49534
C         48.97374        39.53691         0.70510
C         50.22474        41.65428         0.57856
C         48.99855        42.39708         0.71021
C         50.24993        44.49255         0.54611
C         49.01532        43.79260         0.60636
C         50.26185        45.93375         0.56081
C         49.01365        46.66265         0.57011
C         50.27883        48.75464         0.71494
C         49.02958        48.09611         0.61884
C         51.44080        25.33425        -0.63780
C         52.70791        27.46348        -0.93389
C         51.47288        26.73860        -0.70334
C         52.67097        28.85664        -1.18140
C         51.36675        29.51854        -1.30768
C         52.61779        31.76955        -1.27827
C         51.33941        31.06199        -1.34167
C         52.61074        33.18107        -1.05022
C         51.35430        33.84425        -0.78432
C         52.64053        36.00226        -0.51714
C         51.33642        35.34733        -0.88849
C         52.65659        37.35659        -0.10793
C         51.40473        38.06028         0.07478
C         52.69094        40.21821         0.48870
C         51.43646        39.56313        -0.01513
C         52.71323        41.58757         0.59793
C         51.47551        42.36495         0.49544
C         52.78642        44.46599         0.29760
C         51.47729        43.75464         0.51443
C         52.75967        45.91196         0.74597
C         51.49649        46.63319         0.67637
C         51.46696        48.04767         0.76128
C         55.13556        27.51096        -1.16548
C         53.97716        26.80971        -0.93332
C         55.11444        28.92466        -1.35811
C         53.86089        29.61118        -1.34769
C         55.07255        31.76025        -1.53897
C         53.84366        31.05335        -1.42323
C         55.06238        33.27240        -1.66169
C         53.81617        33.91324        -1.09877
C         55.09611        35.98514        -0.54421
C         53.85289        35.30574        -0.72819
C         55.11318        37.36211        -0.12829
C         53.87916        38.01865         0.14128
C         55.16084        40.10897         0.83467
C         53.86274        39.34327         0.87485
C         55.12322        41.50648         1.43020
C         53.93867        42.30730         0.91410
C         55.19921        44.40156         1.09622
C         53.97072        43.67818         0.83464
C         55.17572        45.78190         1.17801
C         53.95406        46.51502         1.08032
C         56.30625        29.65745        -1.54217
C         56.27471        31.04524        -1.64476
C         56.31097        33.93931        -1.13834
C         56.31053        35.21822        -0.69070
C         56.31046        38.11981        -0.00798
C         56.30672        39.46982         0.41304
C         56.41055        42.28509         1.34948
C         56.41965        43.63373         1.27088
O         35.42561        45.01392        -1.94790
O         40.89564        24.77185        -1.59944
O         38.18668        31.51816        -1.28573
O         41.95791        42.08274         2.43595
O         42.78989        45.22151        -0.71101
O         42.07099        48.86593         1.79869
O         43.23089        33.63113        -1.60220
O         49.04906        38.59420         1.89083
O         46.39198        39.06880        -0.87720
O         51.17017        30.25377        -2.55610
O         32.69108        40.33256         1.99205
H         31.83217        40.78917         2.17920
O         38.76289        47.85955         1.60635
H         39.52491        47.35588         1.99462
O         29.22353        39.45278        -2.04981
H         28.43835        38.96049        -2.37228
O         46.37165        29.54983        -2.41296
H         46.38632        28.61618        -2.71347
O         32.76087        46.17684         1.15053
H         32.81491        47.14688         1.29601
O         40.37605        27.33678         1.79898
H         39.69683        27.95290         2.14717
O         40.02734        40.14921         2.66126
H         40.69148        40.79422         3.01559
O         37.84980        32.75985         2.14953
H         37.82970        33.62451         2.61266
O         36.11737        48.19496         1.15427
H         36.93658        48.05188         1.69224
O         53.61279        38.97225         2.28052
H         53.92309        39.73374         2.83134
O         40.15510        37.22492         2.53315
H         40.09812        38.15681         2.86378
O         51.42429        39.80482        -1.48227
H         51.45386        40.77692        -1.62026
O         41.35322        29.83642        -1.88848
H         41.32652        28.98989        -2.38092
O         39.48968        46.89293        -1.85485
H         39.69920        46.02042        -2.25525
O         41.53764        22.56193         1.98692
H         42.31286        22.06496         2.32676
O         34.13516        29.41734         2.43662
H         33.34701        29.89072         2.77949
O         39.49000        43.54187        -1.69150
H         38.73909        43.08055        -2.12290
O         55.02879        33.54575        -3.11480
H         54.85172        34.50445        -3.22540
O         49.10234        26.83782         1.44022
H         49.91816        26.36085         1.70352
O         47.66575        44.39344        -1.21811
H         46.87690        44.89688        -1.51482
O         41.21747        46.50628         2.28675
H         41.69166        47.25509         2.72642
O         44.06440        39.26754         2.64658
H         43.74829        40.09158         3.07758
O         46.63544        42.52661         2.68024
H         46.72074        41.61576         3.03584
O         37.63028        24.39788        -1.90037
H         37.80954        25.29539        -2.25283
O         51.17420        35.62569        -2.33445
H         50.33205        35.21103        -2.62080
O         30.22423        41.73536         1.68065
H         30.19424        42.68677         1.92131
O         54.86916        41.31484         2.88090
H         54.73721        42.20475         3.27286
O         47.76999        31.44288         1.33523
H         48.57455        31.90176         1.65930
O         41.67016        30.62940         1.66162
H         41.64379        31.48389         2.14094
O         52.96754        44.51765        -1.16358
H         53.79653        45.01351        -1.33349
H         26.90446        26.81167         0.52577
H         25.68597        28.94853         0.50123
H         25.67939        31.40373         0.43739
H         25.68766        33.28372         0.36039
H         25.69516        35.70059         0.16835
H         25.71712        37.60502         0.17259
H         25.74638        40.03689         0.09981
H         25.73419        41.82384        -0.77860
H         25.78293        44.25897        -1.19646
H         27.02790        46.34498        -1.46149
H         29.01580        25.55765         0.52250
H         29.14147        47.59077        -1.44249
H         32.75879        23.41187         0.30514
H         30.65178        24.61158         0.40064
H         32.87908        49.75410        -1.47373
H         30.78005        48.51627        -1.52807
H         34.43445        22.48801         0.47602
H         34.72668        50.40388        -2.20321
H         36.55338        21.31290         0.51713
H         36.85896        51.58521        -2.14175
H         40.31884        19.12204         0.33537
H         38.18485        20.31764         0.36979
H         40.54672        53.81979        -1.86903
H         38.41394        52.60298        -1.87092
H         42.80563        19.16479         0.19030
H         42.95949        53.90875        -1.44614
H         44.93072        20.38859         0.12759
H         45.04927        52.82280        -0.73438
H         48.66785        22.56503        -0.24686
H         46.58034        21.33861        -0.07864
H         48.69193        50.81519         0.44147
H         46.61016        52.01484         0.09786
H         50.27006        23.53544        -0.63322
H         50.32149        49.85076         0.76432
H         52.36245        24.75367        -0.77308
H         52.40715        48.60988         0.84094
H         56.10365        26.98939        -1.17498
H         54.03643        25.72834        -0.75139
H         56.10435        46.32888         1.39601
H         53.99152        47.58824         1.31506
H         57.26615        29.12373        -1.59176
H         57.22183        31.57852        -1.80058
H         57.27216        33.41429        -1.22780
H         57.26549        35.67761        -0.39668
H         57.27497        37.66614        -0.27205
H         57.26909        40.00325         0.42002
H         57.35612        41.74650         1.50802
H         57.37101        44.18548         1.32250
