         234
 CSIRO Nanostructure Databank - Neutral Graphene Oxide Data Set
C          1.54466         2.27256         1.42288
C          1.43563         3.61446         0.96860
C          2.69173         1.56211         1.19511
C          2.47373         4.23479         0.29790
C          1.15905         6.46685         0.16426
C          1.15776         7.80547         0.04342
C          2.35141         5.64002        -0.16579
C          2.40611         8.58898        -0.15216
C          1.13957        10.66789        -0.80304
C          1.13630        11.98787        -1.24541
C          2.36057        10.00845        -0.59683
C          2.34167        12.69442        -1.31150
C          1.28627        15.50087        -0.16254
C          1.38554        16.58925         0.76806
C          2.40112        14.89470        -0.65579
C          2.60723        16.97976         1.27421
C          2.69875        18.30221         1.88720
C          3.79960         2.15157         0.49290
C          3.71086         3.53351         0.05080
C          4.97296         1.42453         0.35452
C          4.86086         4.18973        -0.44704
C          3.63070         6.35333        -0.49515
C          3.68783         7.83401        -0.33081
C          4.92095         5.62715        -0.55479
C          4.89921         8.50355        -0.84515
C          3.57534        10.69925        -0.81726
C          3.59045        12.10612        -1.02952
C          4.81058         9.93696        -1.11204
C          4.84772        12.85996        -0.78317
C          3.81394        15.27494        -0.30588
C          3.79191        16.18868         0.92013
C          4.87595        14.14121        -0.23075
C          4.96827        16.37318         1.56429
C          3.81181        19.03373         2.18913
C          5.13577        18.43672         2.27890
C          6.06511         1.90591        -0.47103
C          6.02334         3.39534        -0.86399
C          7.37026         1.11724        -0.45696
C          7.30879         4.10296        -1.21198
C          6.07762         6.33730        -0.85815
C          6.08127         7.78845        -0.99551
C          7.32869         5.61031        -1.20106
C          7.33682         8.50570        -1.20950
C          6.10805        10.70435        -1.35260
C          6.11189        12.13228        -0.94309
C          7.34766         9.89264        -1.29527
C          7.35467        12.77011        -0.76915
C          6.16748        14.51344         0.49765
C          6.21581        15.96746         0.88642
C          7.43571        14.04270        -0.15031
C          7.48012        16.74263         1.01183
C          6.36298        18.86734         1.89974
C          7.57173        17.93709         1.98915
C          8.62001         1.96946        -0.49023
C          8.61110         3.34731        -1.05013
C          9.78409         1.39701        -0.07914
C          9.88404         4.15985        -0.89193
C          8.61330         6.35498        -1.09189
C          8.60520         7.77097        -1.17952
C          9.82476         5.65184        -0.90321
C          9.85080         8.47099        -1.23856
C          8.60731        10.61754        -1.50079
C          8.60398        12.14852        -1.25611
C          9.88706         9.91312        -1.38923
C          9.88874        12.79221        -0.96203
C          8.65572        14.74085         0.00355
C          8.73395        16.05116         0.59611
C          9.88808        14.12416        -0.43604
C          9.93894        16.75004         0.66486
C          8.85499        18.68781         1.77777
C          9.97763        18.10199         1.22997
C         11.04631         2.10427        -0.01651
C         11.07728         3.49457        -0.31264
C         12.19997         1.45104         0.44770
C         12.28457         4.20195        -0.17271
C         11.03396         6.36803        -0.78909
C         11.06077         7.75389        -1.04327
C         12.25117         5.71615        -0.17468
C         12.35443         8.44825        -1.27566
C         11.07160        10.65508        -1.40615
C         11.09472        12.08594        -1.20694
C         12.35489         9.94140        -1.55838
C         12.34763        12.79536        -1.16624
C         11.09158        14.86054        -0.39635
C         11.14884        16.17525         0.13644
C         12.28712        14.25955        -1.00798
C         12.38381        16.89598         0.21948
C         11.22065        18.80519         1.25339
C         12.41190        18.21490         0.81935
C         13.43535         2.13069         0.54737
C         13.46024         3.50996         0.17852
C         14.60921         1.48408         1.07301
C         14.75855         4.20022         0.17336
C         13.55910         6.36978        -0.55692
C         13.59730         7.84601        -0.74515
C         14.79221         5.66021        -0.14038
C         14.77247         8.53357        -0.61725
C         13.65311        10.69569        -1.45136
C         13.60036        12.16252        -1.24973
C         14.90615         9.94369        -1.03123
C         14.82991        12.87302        -1.09683
C         13.59733        15.03253        -0.90814
C         13.60849        16.31992        -0.19611
C         14.85108        14.27213        -0.96377
C         14.85409        16.93505         0.07189
C         13.65412        18.88687         0.96588
C         14.87183        18.27763         0.62738
C         15.82771         2.14987         1.27365
C         15.94895         3.54968         0.78857
C         17.02341         1.54253         1.70768
C         17.01048         4.41199         1.43985
C         15.90481         6.47105         0.42899
C         15.91153         7.94418         0.14308
C         17.14723         5.80124         0.85145
C         17.20768         8.64596         0.25499
C         16.10537        10.68965        -0.58937
C         16.08857        12.15839        -0.73016
C         17.23587        10.05527        -0.11301
C         17.42193        12.88725        -0.80323
C         16.07656        14.98684        -0.80408
C         16.07718        16.28739        -0.28896
C         17.31013        14.31180        -1.39890
C         17.39813        16.92423         0.10222
C         16.09609        18.98810         0.73658
C         17.32802        18.41117         0.38045
C         18.27028         2.25138         1.71218
C         18.31088         3.66456         1.53247
C         19.51118         1.57579         1.88607
C         19.51537         4.37408         1.55417
C         18.27344         6.55437         1.07292
C         18.29975         7.98134         0.78864
C         19.51354         5.85792         1.52430
C         19.55273         8.74401         1.17936
C         18.51158        10.77247        -0.00076
C         18.65491        12.03936        -0.73588
C         19.54991        10.13246         0.61890
C         19.83340        12.44394        -1.33715
C         18.55241        15.16594        -1.25004
C         18.46507        16.63285        -0.94732
C         19.74598        14.66366        -1.65806
C         19.80644        17.24673        -0.60589
C         18.51990        19.13352         0.36373
C         19.77663        18.54233        -0.02342
C         20.71124         2.26451         1.82247
C         20.74615         3.67057         1.64604
C         21.99189         4.38014         1.45751
C         20.85090         6.57582         1.34566
C         20.79816         7.94779         0.75136
C         22.04696         5.71872         1.22463
C         21.71851         8.31181        -0.18807
C         21.40336        10.75953        -0.46837
C         21.21678        12.06581        -1.13527
C         21.84728         9.56239        -0.92824
C         22.24418        12.98210        -1.32176
C         21.04711        15.23123        -1.38870
C         21.04012        16.62871        -0.92526
C         22.17317        14.41554        -1.39842
C         22.23499        17.34647        -0.69364
C         20.99185        19.23729         0.17342
C         22.20243        18.64094        -0.17177
O         20.78304        10.78683         0.80271
O         20.20492         6.45532         2.65668
O         14.43838         5.78777        -1.56860
O         12.39668         8.97416        -2.64486
O         16.70944        12.80223         0.46115
O          9.50957         3.54131        -2.17763
O          5.25726        10.32350        -2.47276
O          2.74220         5.87900        -1.56806
O         15.43172         7.42817         1.44748
O          7.21043         4.84253        -2.46072
O          3.31993         8.35395         1.00321
O         19.71329        13.43541        -2.32770
O          5.67882         2.33210        -1.81074
O         12.81245        15.02717        -2.14778
O          2.25530        14.02685        -1.74741
O          6.60109        16.92136        -0.15563
O         14.61851        10.24648        -2.44627
O          8.52867        11.58234        -2.59619
O         15.82987         3.57119        -0.65720
O          5.05491        17.09162         2.76539
O         17.99787        17.27508        -2.17850
H         18.71896        17.22174        -2.84055
O          4.26836        16.07357        -1.44288
H          4.15824        15.52780        -2.25080
O         16.51799         4.62233         2.80102
H         17.12511         5.24771         3.25169
O         17.03449        14.13045        -2.81036
H         16.91814        15.01708        -3.21224
O         12.13699         6.06995         1.25499
H         11.33525         5.63544         1.61487
O          6.08808        13.81056         1.79417
H          6.02084        12.84997         1.60653
O          7.40649         0.24684         0.68058
H          7.58504         0.77815         1.48291
O          7.65918        17.38297         3.32981
H          6.75763        17.05131         3.55934
O         19.53929         8.88895         2.62405
H         20.32899         9.41472         2.87025
O         17.83558        16.27490         1.32533
H         17.13616        16.38922         2.00164
H          0.69634         1.81285         1.94786
H          0.49656         4.15233         1.15530
H          2.78004         0.51791         1.52711
H          0.21507         5.95192         0.39495
H          0.22122         8.35635         0.21369
H          0.18745        10.13722        -0.67533
H          0.19658        12.49789        -1.49133
H          0.30223        15.22875        -0.56758
H          0.48118        17.17290         0.99205
H          1.73475        18.83719         1.92793
H          5.09346         0.46470         0.87756
H          3.69689        20.10519         2.41479
H          7.37167         0.45318        -1.36064
H          6.49391        19.87547         1.48266
H          9.76285         0.35383         0.27150
H          8.93681        19.69964         2.20433
H         12.14015         0.38856         0.72644
H         11.24768        19.81220         1.69600
H         14.52709         0.42332         1.35633
H         13.65985        19.90644         1.37936
H         17.02828         0.46925         1.95246
H         16.06540        20.04573         1.04142
H         19.51154         0.48651         2.03644
H         18.51473        20.19022         0.67383
H         21.66058         1.71689         1.91456
H         22.91787         3.78636         1.42671
H         23.01476         6.18934         0.99652
H         22.46245         7.54770        -0.47259
H         22.37370         9.51618        -1.89195
H         23.26414        12.59559        -1.16131
H         23.14720        14.90755        -1.24661
H         23.20448        16.89106        -0.93784
H         20.97552        20.24562         0.61101
H         23.14413        19.18553        -0.01580
