         317
 CSIRO Nanostructure Databank - Neutral Graphene Oxide Data Set
C         30.25628        31.43304         0.63560
C         30.22112        32.66087         0.81762
C         30.34253        35.80383         0.04177
C         30.17128        37.01098        -0.29055
C         30.27191        40.77335         0.35014
C         30.36888        41.70224         1.18157
C         32.80538        28.71319         0.26368
C         31.70272        29.24269         0.44029
C         32.65286        31.42718         0.07208
C         31.29527        30.59955        -0.10155
C         32.51667        32.69252         0.56776
C         31.30593        33.49763         0.12366
C         32.65422        35.79068        -0.05018
C         31.46209        34.99796         0.21269
C         32.57423        37.23422        -0.22510
C         31.32224        37.80348        -0.55493
C         32.65292        40.46632         0.08594
C         31.38895        40.05366        -0.22365
C         32.82192        41.63740         1.05348
C         31.53239        42.63726         1.05800
C         32.99659        44.22872         2.00672
C         31.88409        43.69641         2.05475
C         35.71049        27.38635        -0.18106
C         35.30290        28.61379        -0.45592
C         33.96317        29.28155        -0.50737
C         35.19398        31.54182        -0.63951
C         34.02679        30.76521         0.12052
C         35.26581        33.05988        -0.40716
C         34.17236        33.89251        -0.85862
C         35.16379        35.90672         0.26458
C         33.95725        35.15583        -0.24086
C         35.09744        37.36063        -0.36123
C         33.81737        38.14571         0.10926
C         35.26319        40.43391        -0.29237
C         33.82489        39.63180        -0.48789
C         35.24206        41.77579         0.48939
C         34.11339        42.43313         0.84182
C         35.49028        44.50745         1.54668
C         34.14926        43.98326         1.07286
C         35.71235        45.99883         1.49173
C         37.93080        27.14532        -0.67047
C         36.76471        26.59790        -0.19688
C         37.88145        28.61488        -1.00777
C         36.52415        29.37002        -1.11594
C         37.79047        31.62879        -0.73532
C         36.56268        30.75473        -0.37373
C         37.76447        32.95741         0.10279
C         36.46229        33.74702        -0.05630
C         37.69529        35.88400        -0.29073
C         36.45915        35.14212         0.03301
C         37.66148        37.37715        -0.45103
C         36.40215        38.09478        -0.02821
C         37.78387        40.25487         0.17222
C         36.44780        39.56993         0.17654
C         37.83135        41.70966         0.61525
C         36.55649        42.50074         0.36528
C         37.99137        44.66418         0.72120
C         36.66624        43.96442         0.68771
C         38.07660        46.05201         0.92658
C         36.78879        46.58450         1.33763
C         40.60994        24.97767        -2.02496
C         39.46253        25.47177        -1.89832
C         40.47269        27.25513        -0.53871
C         39.21909        26.37649        -0.67192
C         40.40419        28.61259        -0.45474
C         39.15719        29.38461        -0.74852
C         40.23153        31.55419        -0.18960
C         39.10421        30.85978        -0.49176
C         40.27264        33.03918        -0.49913
C         38.98543        33.78552        -0.21889
C         40.23875        35.92599        -0.58084
C         38.97476        35.13505        -0.29135
C         40.12492        37.33456         0.05262
C         38.97606        38.16133        -0.57721
C         40.26814        40.20875         0.13045
C         38.93912        39.55554         0.02044
C         40.31290        41.73862         0.19379
C         39.06478        42.44352         0.16057
C         40.47955        44.45631         0.48385
C         39.12963        43.94393         0.01463
C         40.57795        45.91124         0.87727
C         39.31636        46.75492         0.81976
C         40.60955        48.94484         1.11633
C         39.70091        48.06748         1.02121
C         43.21431        24.94180        -1.59444
C         41.93996        25.18247        -1.71231
C         43.04508        27.34057        -0.52592
C         41.78385        26.54396        -0.31363
C         42.93444        28.80781        -0.28669
C         41.57403        29.36049         0.16533
C         42.69440        31.56366         0.75640
C         41.60049        30.88322        -0.16677
C         42.61602        33.08514         0.76106
C         41.42190        33.76449         0.18015
C         42.66498        35.87314         0.05739
C         41.49116        35.22166        -0.07916
C         42.71589        37.35538        -0.03890
C         41.43924        38.08982        -0.06477
C         42.71107        40.19579        -0.50310
C         41.45549        39.53140        -0.38299
C         42.80326        41.57480        -0.30528
C         41.55983        42.42995        -0.34652
C         42.97138        44.45021         0.71159
C         41.64122        43.76938         0.35704
C         42.91516        45.83759         0.07007
C         41.67710        46.41741        -0.02962
C         42.98570        48.86027         0.68268
C         41.81492        49.62168         1.04882
C         44.40211        25.44355        -1.23235
C         45.62469        27.51424        -0.39671
C         44.39463        26.65864        -0.58941
C         45.32998        28.74844         0.56179
C         44.19570        29.59605         0.01794
C         45.23756        31.67730         1.15696
C         44.08925        31.01248         0.46154
C         45.19828        33.13013         1.15132
C         43.87976        33.90449         1.12974
C         45.15456        36.03568         0.56002
C         43.97758        35.13001         0.19154
C         45.19939        37.48209         0.03144
C         43.92859        37.89088        -0.76959
C         45.27478        40.09454        -0.70319
C         43.93976        39.43745        -1.00356
C         45.31962        41.44983        -0.41329
C         44.11351        42.14109         0.18981
C         45.42685        44.45395        -0.17854
C         44.21916        43.67998         0.26941
C         45.44083        46.05128        -0.09621
C         44.07699        46.69535        -0.40388
C         43.79411        48.01783         0.30590
C         47.61866        27.42089         1.08681
C         46.81143        26.90174         0.31709
C         47.56360        28.68236         1.88843
C         46.62718        29.56520         0.91036
C         47.57398        31.70718         1.95612
C         46.39183        30.97689         1.43856
C         47.59791        33.23093         1.73001
C         46.37931        33.84014         1.16222
C         47.73076        35.73887         0.20494
C         46.42057        35.30773         0.86356
C         47.75973        37.19270        -0.33478
C         46.43938        37.82767        -0.81733
C         47.72607        40.04033        -0.92903
C         46.48930        39.34129        -0.90641
C         47.60710        41.45438        -1.45434
C         46.62902        42.21456        -0.51011
C         47.66802        44.34267        -1.50531
C         46.34555        43.63286        -1.11063
C         47.42240        45.68660        -1.38859
C         46.52819        46.54411        -1.08457
C         50.22402        28.93860         2.01067
C         48.85251        29.43099         2.18322
C         50.18813        31.73042         2.24875
C         48.87080        30.96602         2.22243
C         50.21709        33.21241         1.86308
C         48.92615        33.97545         1.67845
C         50.26341        35.90212         0.47359
C         48.91955        35.43861         1.14571
C         50.21885        37.44936         0.42485
C         48.99128        38.04602        -0.19760
C         50.09437        40.39067        -0.14585
C         48.90651        39.50556        -0.44069
C         50.06927        41.71980        -0.91055
C         48.93862        42.19816        -1.47827
C         50.13338        44.18890        -2.05027
C         48.78399        43.57633        -2.19061
C         51.30043        29.52909         2.13671
C         52.65299        31.80293         1.94310
C         51.54971        30.95146         2.37502
C         52.63389        33.03726         1.80278
C         51.50213        33.79319         1.14945
C         52.63228        36.10170         0.54673
C         51.51936        35.32607         1.24375
C         52.62061        37.28490         0.19444
C         51.50933        38.24937         0.20163
C         52.24694        40.27180        -1.22675
C         51.37410        39.54321        -0.45373
C         52.35691        41.44687        -1.72433
C         51.45588        42.46058        -0.95295
C         51.20768        43.76120        -1.63374
O         35.65971        40.84610        -1.56396
O         36.47920        43.48933        -0.70428
O         47.03132        41.36411        -2.75281
O         36.36866        38.65425         1.32297
O         45.71528        36.03616         1.91247
O         41.47734        33.47652         1.62770
O         43.85995        39.56559        -2.51301
O         49.65434        33.98917         2.94571
O         48.69610        37.29598        -1.45888
O         40.52563        40.92213         1.40855
O         48.74312        30.13748         3.43607
O         31.17122        39.03252        -1.13232
O         42.89169        28.29913        -1.64768
O         45.35231        43.96594         1.18542
O         37.47972        36.55153        -1.62856
O         50.81503        38.17315         1.51207
O         47.30063        32.64154         3.03263
O         38.71696        29.02216        -2.12873
O         50.89079        31.46556         3.51776
O         42.27503        37.97825         1.20252
O         41.40051        47.38676        -0.90995
H         42.18142        47.51655        -1.50091
O         33.35403        33.50240        -1.83170
H         33.60932        32.59511        -2.14785
O         33.65692        39.50316        -1.89439
H         34.31676        40.16000        -2.28491
O         37.88950        32.60515         1.51035
H         38.09015        33.42089         2.01637
O         50.11538        40.69154         1.25459
H         50.78740        41.39535         1.40278
O         37.70579        31.98369        -2.12687
H         38.55190        32.42925        -2.37859
O         47.42319        29.80868        -0.26221
H         47.11473        29.23313        -1.00716
O         45.21834        38.36194         1.16548
H         45.46848        37.83747         1.96394
O         32.88434        41.08130         2.37908
H         33.29447        40.18658         2.32448
O         36.24248        29.46232        -2.50537
H         37.10059        29.38224        -2.98854
O         39.03821        44.26573        -1.41729
H         38.10618        44.04835        -1.67750
O         35.05335        36.04238         1.71796
H         35.23352        35.16792         2.12379
O         39.80456        37.14267         1.44159
H         40.61319        37.36246         1.96363
O         46.27351        37.26768        -2.14600
H         47.08964        37.50181        -2.64638
O         47.82588        34.86276        -0.93833
H         47.15624        35.14283        -1.60119
O         45.79977        46.42099         1.20777
H         46.60605        45.93622         1.47957
O         45.61766        43.48282        -2.32493
H         46.04301        42.71283        -2.81916
O         41.33359        42.69439        -1.75497
H         40.53568        43.27789        -1.84818
O         34.91342        31.45283        -2.05383
H         35.73074        31.72981        -2.53299
O         33.54002        29.31844        -1.85641
H         34.32208        29.23724        -2.44927
O         44.28346        34.61559        -1.13022
H         44.19506        35.37773        -1.76225
O         43.71575        34.36803         2.47515
H         42.75111        34.44890         2.65403
O         44.46909        30.66929        -0.92675
H         42.93438        30.73868        -1.68741
O         41.99716        31.04500        -1.55016
O         46.92095        28.42498         3.12603
H         47.35350        28.98003         3.81956
O         35.69494        44.05563         2.87031
H         36.54513        44.40299         3.20980
O         40.96463        46.05926         2.26166
H         41.72767        45.46423         2.46846
O         51.95620        42.60704         0.34832
H         52.78433        43.12928         0.32103
O         48.70730        36.28527         2.28009
H         49.16998        35.87571         3.04982
O         33.85521        44.60184        -0.16070
H         32.98920        44.24962        -0.48283
O         46.03066        28.01416        -1.67055
H         45.97990        27.28111        -2.32098
O         41.94086        50.94329         1.26641
H         41.07304        51.33959         1.47996
O         51.51710        35.71390         2.58729
H         51.49295        36.69995         2.62656
O         37.94379        41.68448         2.08269
H         38.80601        41.24690         2.29330
O         31.44674        43.26814        -0.20813
H         30.63544        43.81641        -0.23823
O         39.25931        38.39009        -1.96323
H         38.95973        37.59449        -2.46398
O         43.83948        37.17651        -2.01698
H         44.20574        37.74805        -2.73363
O         30.94033        30.46282        -1.43486
H         30.23746        29.79006        -1.53040
O         47.27979        42.30195         0.75824
H         46.60210        42.51715         1.44045
O         44.26007        40.89490        -2.90058
H         45.26890        40.85701        -2.96438
O         42.52018        31.21169         2.14943
H         41.83607        31.81381         2.52448
O         40.44938        33.14302        -1.94976
H         41.11466        32.44266        -2.19759
O         48.43115        43.38782        -3.54579
H         47.89283        42.53586        -3.58752
O         31.05183        33.25262        -1.25926
H         30.28354        33.79566        -1.53251
O         40.38905        36.02906        -2.01106
H         40.43866        35.10725        -2.36213
O         34.39474        30.66338         1.49590
H         33.67303        30.18883         1.96153
O         34.96912        37.17951        -1.76822
H         34.53566        37.99423        -2.14395
O         43.06533        44.46506         2.16756
H         43.98108        44.76070         2.38380
O         43.95534        46.94034        -1.80981
H         44.83924        47.21796        -2.14943
O         39.20480        25.51422         0.47412
H         38.28520        25.17827         0.57921
O         41.82296        25.80494         0.82552
H         40.91414        25.46653         1.02539
O         44.12167        41.73581         1.60662
H         43.52851        42.34690         2.10148
O         41.36416        29.06972         1.55581
H         42.04193        29.53652         2.10457
O         36.73533        30.33187         0.97602
H         36.79676        31.11530         1.56984
O         33.76061        38.35172         1.52636
H         34.20045        37.59595         1.98424
O         51.42967        33.33425        -0.18477
H         52.02573        33.87074        -0.74914
O         50.40050        35.42941        -0.85949
H         49.67295        35.80449        -1.41601
O         44.71979        28.22967         1.75210
H         45.40689        27.83701         2.34365
O         33.37065        33.23708         1.48449
H         33.05545        34.12854         1.74224
