         651
 CSIRO Nanostructure Databank - Neutral Graphene Oxide Data Set
C          6.20469        31.68882         0.30243
C          6.20947        33.04872         0.38745
C          8.42800        27.44517        -0.75105
C          8.40614        28.82765        -0.82566
C          7.30594        29.57915        -0.31365
C          8.49077        31.71777        -0.69024
C          7.32711        30.96301        -0.23586
C          8.46794        33.14105        -0.59959
C          7.34306        33.82343        -0.06842
C          8.48581        36.01556        -0.27392
C          7.33279        35.22854         0.02804
C          8.51759        37.40259        -0.03605
C         10.77656        23.19952        -0.23795
C         10.82352        24.54929        -0.52744
C          9.60820        25.30534        -0.71466
C         10.84663        27.31020        -1.47375
C          9.59671        26.65504        -1.00637
C         10.81479        28.80140        -1.72376
C          9.55027        29.57209        -1.41368
C         10.79799        31.78754        -1.64389
C          9.59037        31.03962        -1.24310
C         10.86329        33.22515        -1.33848
C          9.54691        33.94953        -1.27716
C         10.86298        36.05600        -0.89975
C          9.66106        35.35887        -0.76524
C         10.89059        37.47515        -0.68813
C          9.69277        38.16160        -0.27928
C         10.89851        40.30904        -0.37266
C          9.72438        39.56364        -0.10967
C         10.94183        41.72030        -0.24554
C         13.35421        18.96037         0.23599
C         13.32457        20.32364         0.21558
C         11.94761        20.96945         0.26112
C         13.25858        23.25699         0.32498
C         11.94971        22.49032         0.27637
C         13.27228        24.62071        -0.22591
C         12.10737        25.24268        -0.58668
C         13.40823        27.36495        -1.04573
C         12.15090        26.58674        -1.22191
C         13.40692        28.80754        -1.42322
C         12.14296        29.52165        -1.80449
C         13.34965        31.79122        -1.45047
C         12.13337        31.03572        -1.81550
C         13.31756        33.16323        -1.37705
C         12.06481        33.90061        -1.37981
C         13.27961        36.05741        -1.33674
C         12.09197        35.35555        -1.22528
C         13.29594        37.48750        -1.24071
C         12.07963        38.20438        -0.92231
C         13.25948        40.37602        -1.11609
C         12.08970        39.62077        -0.78627
C         13.27513        41.76281        -1.03927
C         12.10196        42.45511        -0.56495
C         13.33051        44.60999        -0.57581
C         12.14258        43.86398        -0.38347
C         13.39325        45.99291        -0.23295
C         15.88386        14.62707         0.64052
C         15.83038        16.04920         0.46101
C         14.63969        16.74006         0.38852
C         15.88279        18.94941        -0.02807
C         14.59374        18.17608         0.06210
C         15.84948        20.44556         0.03286
C         14.54594        21.12685         0.15704
C         15.75482        23.25651         0.52185
C         14.54022        22.50403         0.29418
C         15.60297        24.76883         0.69690
C         14.62932        25.25708        -0.43375
C         15.70722        27.57210        -0.16120
C         14.52704        26.75781        -0.56360
C         15.84137        28.88106        -0.87756
C         14.60214        29.60023        -1.14079
C         15.87395        31.74561        -1.53810
C         14.60703        31.08056        -0.98431
C         15.84815        33.23546        -1.51316
C         14.57952        33.94740        -1.06389
C         15.81502        36.10304        -1.41805
C         14.54609        35.32827        -1.73255
C         15.76330        37.47984        -1.34962
C         14.50339        38.17424        -1.38876
C         15.74026        40.38716        -1.78211
C         14.46137        39.64021        -1.57089
C         15.76280        41.84813        -1.57548
C         14.42447        42.56540        -1.63068
C         15.68508        44.70195        -1.20628
C         14.50200        43.97160        -1.08207
C         15.72714        46.08782        -0.88445
C         14.55753        46.73371        -0.38741
C         15.93825        48.84620         0.06645
C         14.53332        48.21380        -0.02793
C         15.86916        50.36737         0.08660
C         18.35919        10.38875         0.94348
C         18.34922        11.78659         0.92315
C         17.12932        12.51377         0.82087
C         18.38850        14.67189         0.53449
C         17.08754        13.91250         0.69054
C         18.24289        16.06876         1.19280
C         17.13184        16.78041         0.45150
C         18.29073        19.04404         0.93941
C         17.18170        18.27165         0.30067
C         18.25226        20.41739         1.02570
C         17.10329        21.19192         0.47419
C         18.11420        23.40514         1.26551
C         16.94858        22.62644         0.77412
C         18.13301        24.85644         0.93066
C         16.96710        25.48652         0.64994
C         18.20591        27.77170         0.65618
C         16.90653        26.96437         0.50322
C         18.28794        29.03408        -0.16491
C         17.15339        29.60047        -0.91207
C         18.28186        31.89077        -0.76157
C         17.24823        31.03715        -1.46390
C         18.28731        33.27211        -0.88833
C         17.10482        33.99792        -1.29035
C         18.27973        36.13968        -0.94891
C         17.06540        35.39154        -1.23338
C         18.27888        37.56518        -0.94762
C         16.96415        38.30256        -0.92728
C         18.29080        40.41588        -1.57082
C         17.03153        39.63319        -1.65998
C         18.24389        41.89717        -1.62387
C         16.95502        42.54186        -1.63162
C         18.20615        44.77376        -1.71532
C         16.90560        44.02206        -1.70623
C         18.14721        46.19812        -1.32711
C         16.96080        46.82887        -1.05093
C         18.16734        49.08786        -1.14260
C         16.82160        48.34094        -1.09217
C         18.14765        50.55439        -0.86029
C         16.91632        51.16415        -0.29632
C         18.24378        53.18137         0.26405
C         17.01212        52.56408         0.03871
C         18.27989        54.54849         0.69749
C         20.93354         6.12775         0.84366
C         20.96466         7.60178         0.56913
C         19.64827         8.30429         0.76256
C         20.76787        10.38001         1.63743
C         19.57394         9.63351         1.07690
C         20.91055        11.75548         0.98037
C         19.60733        12.53297         1.03039
C         20.84134        14.66864         1.21784
C         19.59525        13.89447         1.01283
C         20.79649        16.15825         1.30814
C         19.50535        16.88961         1.20559
C         20.73632        18.99111         1.49872
C         19.48623        18.26854         1.29453
C         20.69881        20.45370         1.73944
C         19.38691        21.17900         1.63098
C         20.70149        23.49661         1.84522
C         19.37188        22.69405         1.66292
C         20.68034        24.80721         1.07772
C         19.41609        25.61624         1.29615
C         20.70033        27.62953         0.41086
C         19.48238        26.97237         0.64466
C         20.70450        29.05519         0.14954
C         19.47163        29.73831        -0.08812
C         20.71584        31.92296        -0.19713
C         19.40175        31.23446         0.00183
C         20.69384        33.32033        -0.28912
C         19.48619        34.03574        -0.54658
C         20.65862        36.26857        -0.15897
C         19.47737        35.44281        -0.64719
C         20.72328        37.65342        -0.75546
C         19.48083        38.30438        -0.89897
C         20.75768        40.49505        -1.18366
C         19.45499        39.81223        -0.82337
C         20.72495        41.88583        -1.42404
C         19.46176        42.59690        -1.57070
C         20.70385        44.72475        -1.65850
C         19.49563        44.03531        -1.63827
C         20.68236        46.20946        -1.67354
C         19.40678        46.95503        -1.46464
C         20.70536        49.09387        -1.08849
C         19.44133        48.31475        -0.79748
C         20.60047        50.45097        -1.02417
C         19.44150        51.20935        -0.57254
C         20.69908        52.95889         0.77587
C         19.49636        52.43641         0.05884
C         20.60692        54.31045         1.46043
C         19.41755        55.16187         1.23069
C         20.47599        57.07886         2.45857
C         19.44137        56.50262         1.68054
C         20.37952        58.44644         2.79696
C         23.37731         3.30584         1.07262
C         22.14977         4.00206         1.06130
C         23.36238         6.15110         1.25461
C         22.11419         5.42857         1.06811
C         23.37406         7.53748         1.34989
C         22.12975         8.29303         1.24444
C         23.27639        10.36374         1.99307
C         22.07103         9.61818         1.55791
C         23.27615        11.84255         1.88574
C         22.10919        12.49494         1.55060
C         23.23513        14.68725         2.25635
C         21.99275        13.93037         1.82593
C         23.20970        16.18847         2.19111
C         21.85745        16.87953         2.10405
C         23.18271        19.04117         1.46058
C         21.93386        18.33466         1.68276
C         23.17954        20.38994         1.23144
C         22.00349        21.19713         1.64800
C         23.13725        23.37877         0.87569
C         21.99712        22.69683         1.55794
C         23.18986        24.75510         0.77810
C         21.98276        25.58458         1.19222
C         23.16209        27.61874         0.25381
C         21.95337        26.94233         0.52318
C         23.15961        29.03188        -0.00442
C         21.92759        29.76060         0.00808
C         23.16906        31.87143        -0.40710
C         21.92513        31.18698        -0.16927
C         23.19957        33.28258        -0.51988
C         21.97748        34.03587        -0.19674
C         23.20855        36.21216        -0.70067
C         21.99046        35.53042        -0.20809
C         23.20834        37.62612        -0.87688
C         21.95621        38.34584        -0.88331
C         23.23167        40.45326        -1.17443
C         21.97983        39.76612        -1.10667
C         23.20798        41.92806        -1.12282
C         21.95011        42.62888        -1.43523
C         23.22843        44.75008        -1.72687
C         21.96627        44.02101        -1.59121
C         23.06554        46.19269        -1.92056
C         21.97339        46.92052        -1.54292
C         23.30770        48.97554        -0.44492
C         22.01768        48.33756        -1.00909
C         23.39339        50.37606         0.09855
C         22.42942        51.35179        -0.17450
C         23.04074        52.79814         1.65862
C         22.06667        52.39000         0.71052
C         23.01088        54.06376         2.24862
C         21.87512        54.95674         1.92313
C         22.86013        56.61209         3.56712
C         21.76526        56.30602         2.60886
C         22.77634        57.66733         4.46907
C         21.19551        59.03739         3.80918
C         22.79076        60.58223         4.90502
C         21.74175        60.30051         3.96255
C         24.58213         3.95036         1.21696
C         25.85871         6.13320         0.92226
C         24.65024         5.41208         1.55161
C         25.84682         7.60369         1.29827
C         24.62254         8.23260         1.54526
C         25.84200        10.43770         1.80767
C         24.61353         9.64278         1.94956
C         25.78980        11.86311         1.93350
C         24.53141        12.56687         2.05984
C         25.73546        14.72990         2.00117
C         24.52044        13.97473         2.11843
C         25.73695        16.15048         1.86440
C         24.46978        16.91937         1.91371
C         25.69697        19.07740         1.50242
C         24.45031        18.24671         1.18760
C         25.69465        20.46821         0.98114
C         24.34768        21.02365         0.52294
C         25.58509        23.28675         0.24592
C         24.28470        22.55654         0.41639
C         25.61868        24.75562         0.33384
C         24.42039        25.46320         0.45448
C         25.63034        27.59649         0.06091
C         24.42255        26.91055         0.28500
C         25.62088        28.99180        -0.25169
C         24.38461        29.71092        -0.26702
C         25.57292        31.81483        -0.85714
C         24.37623        31.12584        -0.50743
C         25.56095        33.22604        -1.03324
C         24.39206        33.98555        -0.80194
C         25.59330        36.16932        -1.10479
C         24.38270        35.45949        -0.89322
C         25.65430        37.57996        -1.14553
C         24.43762        38.32281        -1.08219
C         25.72347        40.47434        -1.23016
C         24.45776        39.76179        -1.16114
C         25.77381        41.89780        -1.28541
C         24.52098        42.70198        -1.18141
C         25.82572        44.84378        -1.57236
C         24.47888        44.13911        -1.57630
C         25.89797        46.21860        -0.98582
C         24.94618        47.15855        -1.25708
C         25.66169        48.74583         0.40318
C         24.66406        48.32357        -0.46888
C         25.53100        49.92458         1.20356
C         24.37809        50.69087         1.08051
C         25.44986        52.59365         2.29392
C         24.15168        51.84082         2.05425
C         25.38173        53.90020         2.96584
C         24.16264        54.60760         2.93219
C         25.23147        56.40633         4.25632
C         24.09008        55.89345         3.54795
C         25.14698        57.68064         4.89195
C         23.91579        58.34171         4.99156
C         23.74936        59.72414         5.40271
C         27.03870         8.35657         1.34202
C         28.37342        10.46641         1.50697
C         27.04372         9.74752         1.55460
C         28.28919        11.95407         1.76926
C         27.00756        12.60100         1.88514
C         28.19383        14.75709         2.06362
C         26.97915        14.02298         1.96006
C         28.07158        16.13204         2.31226
C         26.93245        16.88218         1.96672
C         28.33850        19.18110         1.63752
C         26.98920        18.38779         1.85011
C         28.15922        20.44559         0.78873
C         26.88341        21.11635         0.73269
C         27.96564        23.16102        -0.36973
C         26.90138        22.62003         0.57693
C         28.02389        24.67471        -0.23248
C         26.88578        25.39572         0.09278
C         28.19701        27.55466        -0.17292
C         26.94053        26.87539         0.38405
C         28.12718        28.99239        -0.62387
C         26.81810        29.69500        -0.63243
C         27.98059        31.70368        -1.55267
C         26.77606        31.03498        -0.99914
C         28.06443        33.17719        -1.33549
C         26.77513        33.94250        -1.57406
C         28.12513        36.11265        -1.25096
C         26.83652        35.38203        -1.10393
C         28.13385        37.58384        -1.33120
C         26.92516        38.28923        -1.25440
C         28.20522        40.41034        -1.26233
C         26.94874        39.73181        -1.26139
C         28.23504        41.83930        -1.23199
C         27.01842        42.55940        -1.30086
C         28.33774        44.69663        -0.86342
C         27.08658        44.04020        -1.38101
C         28.32436        45.98602        -0.39927
C         27.01481        46.61664        -0.11260
C         28.13097        48.78242         0.88115
C         26.90549        47.94631         0.56125
C         27.92995        49.57703         2.16626
C         26.62970        50.32380         2.13731
C         27.90355        52.41748         3.01852
C         26.69909        51.79637         2.41774
C         27.80078        53.66967         3.54763
C         26.54246        54.42053         3.60064
C         26.44591        55.66520         4.24098
C         29.46167        12.68205         1.79564
C         30.67782        14.79663         1.57738
C         29.49056        14.11923         1.89130
C         30.81540        16.19851         1.23156
C         29.83992        17.16709         1.70294
C         30.45098        18.86555         0.10707
C         29.49897        18.34211         1.10760
C         30.50964        20.33889        -0.02721
C         29.30107        21.07428         0.22454
C         30.46176        23.12630        -0.50780
C         29.28940        22.46347        -0.16343
C         30.42037        24.54484        -0.79626
C         29.26825        25.31217        -0.60116
C         30.43208        27.39837        -1.25147
C         29.32288        26.75524        -0.71561
C         30.47716        28.83767        -1.40226
C         29.29342        29.55323        -1.32347
C         30.56572        31.67401        -1.75144
C         29.26903        30.96630        -1.71782
C         30.59385        33.15535        -2.07058
C         29.36245        33.87090        -1.52762
C         30.63041        36.06369        -1.54695
C         29.33267        35.36055        -1.69991
C         30.62871        37.51497        -1.26886
C         29.40418        38.24458        -1.31302
C         30.70350        40.30936        -1.17882
C         29.43995        39.66420        -1.24256
C         30.73770        41.77278        -1.23518
C         29.49468        42.53999        -1.11640
C         30.79063        44.52089        -0.38485
C         29.57124        43.91992        -0.86663
C         30.90403        46.01498        -0.16907
C         29.55826        46.73876        -0.05789
C         30.56868        48.43289         1.61620
C         29.45399        48.03620         0.70990
C         30.43187        49.46873         2.50775
C         29.15273        50.19083         2.87555
C         29.22473        51.73729         2.67091
C         31.80532        16.68361         0.39998
C         32.96184        18.70741        -0.66238
C         31.68176        18.03181        -0.18906
C         32.91223        20.22302        -0.67071
C         31.68865        20.96438        -0.45359
C         32.91297        23.05277        -0.91860
C         31.71652        22.40090        -0.61561
C         32.96196        24.55621        -1.02910
C         31.62173        25.15954        -1.39188
C         32.88176        27.35566        -2.02487
C         31.58728        26.62546        -1.75374
C         32.93081        28.81684        -1.80493
C         31.73575        29.52048        -1.66833
C         33.02555        31.69452        -2.07244
C         31.73695        30.96883        -1.72231
C         33.04945        33.11579        -1.52599
C         31.85193        33.82955        -1.56924
C         33.07364        35.98655        -1.06886
C         31.77674        35.23288        -1.01756
C         33.09515        37.37047        -0.99639
C         31.86297        38.15510        -1.09134
C         33.17277        40.23694        -0.76141
C         31.91000        39.57916        -1.04890
C         33.20881        41.60006        -0.47396
C         32.05888        42.45018        -0.79649
C         33.11949        44.32161         0.47627
C         31.96257        43.79278        -0.23375
C         33.01825        45.58918         1.09982
C         31.87736        46.40571         0.93420
C         31.74943        47.60780         1.62802
C         34.09101        20.89559        -0.89267
C         35.36343        23.00184        -1.18590
C         34.14146        22.32372        -1.01232
C         35.40907        24.39312        -1.46419
C         34.11964        25.01349        -2.00707
C         35.41980        27.28795        -1.76362
C         34.17088        26.56368        -2.09427
C         35.42619        28.71049        -1.72424
C         34.21462        29.48378        -1.82829
C         35.49500        31.55100        -1.49267
C         34.26927        30.89584        -1.74065
C         35.51733        32.96339        -0.93504
C         34.25534        33.74118        -1.17411
C         35.60378        35.87135        -0.76580
C         34.27731        35.17119        -0.86754
C         35.60186        37.33349        -1.00547
C         34.34842        38.07944        -0.86075
C         35.63489        40.11428        -0.29554
C         34.38891        39.46226        -0.67976
C         35.57181        41.46333         0.16074
C         34.38542        42.21367         0.08789
C         34.29514        43.55187         0.57090
C         36.57815        25.12939        -1.38195
C         37.82924        27.25892        -1.29706
C         36.61012        26.56133        -1.50703
C         37.88583        28.65201        -1.33557
C         36.66868        29.39581        -1.54094
C         37.99832        31.50243        -1.44599
C         36.68814        30.80927        -1.46023
C         38.05420        33.00344        -1.34663
C         36.79258        33.75662        -1.18264
C         38.11752        35.81728        -0.75402
C         36.85411        35.10823        -0.99112
C         38.13166        37.17387        -0.49581
C         36.96536        38.04762        -0.75042
C         36.84154        39.39672        -0.23755
C         39.12378        29.35021        -1.07642
C         40.42195        31.45077        -0.82809
C         39.20598        30.72352        -1.09840
C         40.46993        32.81612        -0.73433
C         39.30414        33.65391        -0.88690
C         39.31040        35.00458        -0.62302
O         19.94590        46.84838        -2.81624
O         11.38772        31.51150        -2.96614
O         18.18871        50.01474        -2.25705
O         16.77492        28.69545        -2.04305
O          9.89718        29.14744        -2.79486
O         17.44760        44.53360        -2.96459
O         19.87763        20.68872         2.93084
O         15.69630        32.48898        -2.76418
O         26.16736        19.01393         2.89896
O         17.60597        17.37426        -0.78428
O         20.31779        53.10611         2.21388
O         30.05783        35.80306        -2.87176
O         24.80548        22.90109        -0.92659
O         26.88680        49.25704         3.12395
O         21.23733        15.51570         0.05789
O         22.27888        14.19764         3.24467
O         22.29942        56.16184         1.22653
O         32.97475        31.90985        -3.48052
O         30.56908        18.12732        -1.16114
O         23.84426        42.45782         0.10578
O         33.88156        24.45392        -3.23821
O         23.66874        51.29384         3.24593
O         31.66884        42.33960        -2.20301
O         23.94903        16.86204         3.28194
O         23.88661         9.88346         3.22647
O         14.91088        40.01400        -2.95142
O         27.65486        35.63962         0.07119
O         29.72712        48.04584        -0.74020
O         26.36843        52.52597         1.15479
O         31.33921        25.59073        -2.75206
O         18.41027        23.14278         2.68774
O         17.91672        39.71053        -2.80700
O         22.36663        48.19508         0.44256
O         22.40193        22.00911         2.80979
O         28.35946        31.25650        -2.89307
O         15.84341        27.60951         1.29068
O         12.45582        23.05603         1.53312
O         28.59333        28.61899         0.75583
O         26.69813        44.57159        -2.71738
O         26.74342        46.72361         1.34931
O         36.41183        37.80403        -2.10036
O         21.51722        58.12084         4.84090
O         15.26043        18.46114        -1.24484
O         34.93566        35.47682         0.48563
O         24.15563        46.92906        -2.37603
O         38.18357        32.33835        -2.65503
O         15.06077        25.01921         1.94580
O         21.71534        51.22325        -1.36702
O         11.53878        26.59670        -2.55189
O         33.51790        27.04134        -3.30344
O         16.79609        20.96586        -0.95439
O         29.15622        16.80018         2.86977
O         22.20195        34.81534         1.06528
O         12.97978        28.99357        -2.87495
O         28.91950        33.47707        -0.19151
O         14.49965        35.10125        -3.16032
H         14.50564        35.96878        -3.61516
O         31.54876        46.46287        -1.39584
H         31.30716        47.41006        -1.51873
O         19.36347        48.09096         0.64442
H         20.28234        48.00833         0.99304
O         18.20117        28.28974         2.04129
H         18.35206        27.50538         2.63433
O         14.65142        34.15720         0.36266
H         14.68325        33.26548         0.78606
O         19.22961        40.14024         0.58480
H         19.85969        39.61488         1.12280
O         11.18071        20.50505        -0.86056
H         11.72757        20.57969        -1.66945
O         28.71823        19.67403         2.94754
H         27.88248        19.79339         3.45750
O         14.10574        42.69611        -3.05399
H         14.25224        41.80403        -3.45445
O         16.10153        48.61890        -2.31713
H         16.67156        49.21934        -2.85841
O         29.00737        49.99969         4.30085
H         28.12143        49.58863         4.45095
O         20.51112        10.63610         3.03895
H         20.61041         9.79741         3.53496
O         28.14659        49.86505        -0.10262
H         28.63599        49.53448        -0.89404
O         20.35786        36.53459         1.25166
H         20.81538        35.82170         1.76323
O         19.22398        25.88633         2.73801
H         19.03076        25.00851         3.15973
O         29.51913        52.03233         1.30554
H         28.83813        51.60914         0.73085
O         27.03131        26.94042         1.83689
H         27.49983        27.78220         2.04999
O         24.87562         5.49434         2.99662
H         24.12263         5.05239         3.44228
O         34.05814        18.26111         0.15056
H         33.96836        18.65435         1.04257
O          9.09595        34.08284        -2.67986
H          9.28524        33.23428        -3.13672
O         35.56312        32.74868         0.53204
H         35.43527        33.64192         0.94018
O         26.61683        34.01272        -3.02021
H         26.85586        33.14290        -3.40915
O         22.18136        25.96412         2.59630
H         21.64358        25.33466         3.14699
O         27.21031        23.10270         1.91148
H         28.03162        22.66303         2.21824
O         27.54750        22.83972        -1.72232
H         28.23990        23.15499        -2.34097
O         14.71501        31.33897         0.48866
H         14.27993        30.60498         0.97465
O         15.20275        24.77449        -1.67902
H         14.65399        25.10225        -2.42338
O         21.32293        16.89318         3.45517
H         22.06779        17.12779         4.05466
O         30.63031        33.27198        -3.51151
H         31.45821        32.77170        -3.79395
O         18.60977        14.85439        -0.88347
H         19.43611        15.37980        -0.99192
O         13.74852        48.91835        -0.99449
H         14.25802        48.89562        -1.83953
O         17.76518        30.92863        -2.80757
H         17.27733        30.19022        -3.24116
O         33.27374        25.10004         0.27736
H         34.00259        24.57282         0.66834
O         24.20545        20.50849        -0.85095
H         24.63827        21.18127        -1.43829
O         25.84035         6.00583        -0.50352
H         25.01118         6.40459        -0.84010
O         16.70289        38.67517         0.46463
H         16.81053        37.87389         1.01979
O         20.75317        23.81433         3.27070
H         21.10041        23.00733         3.72378
O         24.49344        17.89704        -0.21429
H         24.39335        18.73886        -0.73349
O         21.17656        11.50244        -0.42946
H         21.05802        12.34239        -0.92228
O         16.51260        48.41319         1.31940
H         17.49355        48.50906         1.28309
O         19.07123        31.44266         1.43694
H         18.71090        30.60131         1.80146
O         29.29351         9.84492         2.41842
H         28.93707         9.93893         3.32561
O         17.82891        15.89987         2.57254
H         18.62572        15.82391         3.13943
O         31.45999        35.06560         0.40898
H         32.25504        34.70843         0.85972
O         21.24669         7.73395        -0.88164
H         21.20018         8.69127        -1.09736
H          5.33129        31.11433         0.64389
H          5.34141        33.58373         0.79884
H          7.54423        26.92781        -0.34696
H          6.42910        29.03126         0.06321
H          6.43771        35.72965         0.42593
H          7.61372        37.91140         0.33059
H          9.83769        22.64073        -0.36422
H          8.65929        24.81302        -0.45193
H          8.81235        40.08993         0.20865
H         10.04500        42.25694         0.09847
H         12.40492        18.40960         0.32124
H         11.41047        20.61116         1.17858
H         11.24332        44.37773        -0.01134
H         12.48896        46.48093         0.15988
H         14.93267        14.07526         0.70572
H         13.68646        16.19815         0.48902
H         14.02380        48.33420         0.96256
H         15.00930        50.82800         0.59756
H         17.41707         9.84555         0.77061
H         16.18196        11.95318         0.85486
H         16.08955        53.11419         0.27800
H         17.34168        55.12235         0.65342
H         19.99505         5.57696         0.68106
H         18.74963         7.79184         0.38205
H         18.54643        57.11674         1.49578
H         19.62100        59.05621         2.28133
H         23.36196         2.21424         0.93695
H         21.20973         3.44598         0.94024
H         22.92712        61.64852         5.15000
H         21.40324        61.12244         3.31523
H         25.51956         3.37580         1.22268
H         26.80052         5.65522         1.28628
H         26.06122        58.14932         5.28470
H         24.55926        60.16620         6.00371
H         27.99859         7.84982         1.16588
H         28.81308        10.31951         0.48126
H         28.70143        54.16993         3.93696
H         27.32595        56.08080         4.75494
H         30.41490        12.14676         1.66829
H         31.54577        14.16134         1.33395
H         31.28746        49.68758         3.16677
H         30.05242        52.15060         3.29663
H         32.65116        16.05050         0.09355
H         33.18251        18.35437        -1.70429
H         33.83356        45.92974         1.75680
H         32.55314        47.89427         2.32520
H         35.02125        20.32145        -1.01531
H         36.30517        22.43874        -1.08685
H         36.48603        41.93735         0.54812
H         35.17583        43.99243         1.06230
H         37.51213        24.61937        -1.09389
H         38.74546        26.68235        -1.10073
H         39.07172        37.65050        -0.17872
H         37.69972        39.83958         0.29060
H         40.01921        28.75234        -0.84654
H         41.34085        30.86781        -0.66468
H         41.42537        33.30665        -0.49509
H         40.24250        35.49502        -0.30345
