         276
 CSIRO Nanostructure Databank - Neutral Graphene Oxide Data Set
C        -10.62499         0.38356         1.81799
C         -9.55839         1.24134         1.34379
C         -8.21036         0.49156         1.15734
C         -7.05060         1.19766         0.47641
C         -6.20254         0.61856        -0.42111
C         -4.91976         1.37153        -0.60114
C         -3.71223         0.68666        -1.11463
C         -2.43791         1.39563        -1.45148
C         -1.32521         0.70028        -1.81863
C         -0.02777         1.40794        -2.06060
C          1.23971         0.61830        -2.24524
C          2.56753         1.36286        -2.07662
C          3.81368         0.66784        -1.50983
C          4.81051         1.46374        -0.64359
C          6.13326         0.76754        -0.35789
C          7.34280         1.53422        -0.08302
C          8.49476         0.91095         0.33536
C          9.80115         1.66939         0.43451
C         10.95640         0.71341         0.21441
C         -9.76303         2.60752         1.29093
C         -8.68625         3.57273         1.39126
C         -6.75027         2.53554         0.97884
C         -5.95877         3.43050         0.33202
C         -5.00353         2.88475        -0.70589
C         -3.60895         3.52855        -0.57025
C         -2.35780         2.83960        -1.04857
C         -0.94396         3.31259        -0.65312
C          0.02299         2.91427        -1.79503
C          1.27541         3.69683        -2.19962
C          2.56475         2.86517        -2.21502
C          3.83787         3.61358        -1.83465
C          4.91117         2.95342        -0.98461
C          6.17376         3.73049        -0.64900
C          7.41988         3.06363        -0.06287
C          8.70797         3.58291        -0.71545
C          9.82929         2.86858        -0.49735
C         -8.53140         4.87602         1.02441
C         -7.20022         5.55358         1.36637
C         -6.04112         4.93867         0.46679
C         -4.68930         5.47770         0.95758
C         -3.46497         4.72639         0.33149
C         -2.15916         5.44467         0.14663
C         -0.86849         4.76739        -0.20764
C          0.20711         5.22018         0.53836
C          1.37385         5.17674        -1.88407
C          2.51763         5.80804        -1.45549
C          3.80466         5.10237        -1.70508
C          5.07387         5.83684        -1.37901
C          6.29517         5.10634        -1.11147
C          7.53647         5.81598        -1.05291
C          8.78653         4.99142        -1.31656
C         -7.18410         7.09385         1.17349
C         -5.78134         7.72721         1.18693
C         -4.65361         6.99737         0.82101
C         -3.43435         7.58094         0.34790
C         -2.28400         6.89916         0.00809
C         -0.76946         7.37083         1.77124
C          0.37305         6.63869         1.02740
C          1.53830         7.46306         0.50337
C          2.71687         6.85549        -0.32119
C          3.70967         7.90624        -0.81288
C          5.06579         7.30175        -1.06962
C          6.25815         7.85940        -0.31684
C          7.53339         7.16795        -0.77111
C         -5.73296         9.10261         1.64304
C         -4.63044         9.86862         1.92457
C         -3.29976         9.50739         1.45731
C         -2.10614         9.53231         2.11023
C         -0.87684         8.86089         1.59327
C          0.18997         9.55387         1.10648
C          1.42694         8.96312         0.60057
C          2.46906         9.79507         0.30212
C          3.69034         9.32435        -0.38728
C          5.00712        10.02772        -0.33157
C          6.18831         9.37982        -0.37781
C        -10.48191        -0.96459         1.98052
C         -9.42172        -1.69598         1.31514
C         -8.51127        -0.85947         0.48304
C         -7.61424        -1.48697        -0.54504
C         -6.51252        -0.64058        -1.23311
C         -5.22601        -1.39965        -1.67760
C         -3.90389        -0.68307        -1.67025
C         -2.65614        -1.44356        -1.78795
C         -1.38128        -0.78288        -2.23047
C         -0.12629        -1.53167        -1.72412
C          1.12228        -0.91436        -2.29068
C          2.45867        -1.23299        -0.42668
C          3.74904        -0.75606        -1.04856
C          4.96619        -1.52360        -0.51989
C          6.14524        -0.60550        -0.22269
C          7.24147        -1.25228         0.52151
C          8.45721        -0.44913         0.87371
C          9.73448        -1.11059         1.36592
C         10.91831        -0.57241         0.59347
C         -9.39339        -3.04738         1.23454
C         -8.72670        -3.77117         0.09428
C         -7.60859        -3.00161        -0.67322
C         -6.40998        -3.71953        -1.26740
C         -5.20117        -2.95101        -1.88677
C         -3.85821        -3.57482        -1.50458
C         -2.69239        -2.79631        -1.54223
C         -1.48063        -3.46748        -0.95264
C         -0.15859        -2.71238        -1.04971
C          0.91496        -3.27522        -0.07193
C          2.32647        -2.67168        -0.08883
C          3.39848        -3.23708         0.54580
C          4.65862        -2.37308         0.74205
C          5.90606        -3.19773         1.10336
C          7.27478        -2.76091         0.53270
C          8.42266        -3.33545         1.35681
C          9.61594        -2.61128         1.49252
C         -8.39394        -5.21441         0.40703
C         -7.27386        -5.80833        -0.02853
C         -6.21327        -5.19049        -0.89077
C         -4.78748        -5.59392        -0.43790
C         -3.78917        -5.08595        -1.49640
C         -2.39093        -5.69030        -1.36622
C         -1.37268        -4.82717        -1.57984
C          0.50981        -5.68306        -0.87737
C          1.07728        -4.80342        -0.01767
C          1.99586        -5.32814         1.03342
C          3.26165        -4.53956         1.27972
C          4.46648        -5.22954         1.97130
C          5.80994        -4.56505         1.67701
C          7.05034        -5.44830         1.49125
C          8.30094        -4.66041         1.78772
C         -7.10672        -7.08852        -0.80284
C         -5.95755        -8.00617        -0.39280
C         -4.65899        -7.14388        -0.30649
C         -3.39430        -7.87904        -0.66176
C         -2.21349        -7.17090        -1.28840
C         -0.87216        -7.88575        -1.07808
C          0.40363        -7.15417        -0.70685
C          1.22638        -7.71810         0.39594
C          1.90467        -6.80824         1.41990
C          3.25066        -7.49170         1.64816
C          4.52472        -6.73406         1.72678
C          5.75087        -7.44727         2.19170
C          6.93941        -6.78792         2.17677
C         -5.79893        -9.09503        -1.45143
C         -4.65426        -9.76757        -1.61903
C         -3.48782        -9.42270        -0.72257
C         -2.14342       -10.11062        -1.11466
C         -0.97407        -9.29504        -0.58354
C         -0.09891        -9.84203         0.30426
C          1.03630        -9.12174         0.86407
C          2.00637        -9.69033         1.63098
C          3.13163        -8.88663         2.26350
C          4.47688        -9.56931         2.33688
C          5.63651        -8.88437         2.43087
O          2.11575        -4.48592         2.22167
O         -4.71763        -0.74278        -2.89287
O         -8.91796        -0.88094        -0.91460
O         -1.48943        -7.75853        -2.40731
O          5.33179         6.90607        -2.40964
O         -7.79261         0.23975         2.46523
O          4.07149        -7.28650         0.45300
O         -2.48614         4.70693         1.41197
O          5.00420         3.70601         0.24779
O         -0.11389        -5.22279        -2.03607
O         -3.04461         3.79542        -1.91326
O          1.54795         6.86503         1.85226
O          4.09812         1.45599         0.63499
O          4.11209        -0.41369        -2.43667
O          1.89352        -1.59180        -2.94593
O         -3.34385         8.97432         0.12841
O         -3.66184        -7.44341         0.71627
O          0.12209         3.54898        -3.09724
O         -3.92702         0.83482         0.34289
O          1.72084        -7.75265        -0.98072
O          6.02329        -3.41059         2.55162
O          7.38062        -0.66000         1.86223
O          3.31531         8.89141        -1.78459
O         -1.39139         6.78217         2.64444
O          4.12619         4.44574        -2.99948
O         -6.58981        -6.23130        -1.91208
O         -7.59246        -3.46187        -2.06362
O         -7.55925         2.97045         2.02851
O          2.87955         2.02188        -3.34846
O          0.49755         1.11134        -3.40067
O          7.52461         3.47167         1.28187
O         -1.98059        -3.68327         0.35626
O         -4.22622        -5.57284        -2.78617
H         -4.76250        -4.87903        -3.24751
O         -0.49243         2.46771         0.44229
H         -1.08380         2.62554         1.21280
O         -3.80752        -9.91060         0.60477
H         -3.62199        -9.16809         1.23282
O          1.08263        -6.86965         2.60658
H          1.26714        -6.05305         3.12709
O          8.98124         4.91507        -2.73683
H          8.15182         4.61241        -3.16055
O          0.33935        -2.83556         1.17000
H          0.80810        -3.28753         1.91201
O          9.91208        -0.71722         2.75732
H          9.01045        -0.61465         3.13875
O         -4.62421         5.19733         2.36307
H         -3.71882         5.42000         2.67791
O         -1.36796         7.53650        -0.79450
H         -1.69857         8.45941        -0.90733
O          9.85479         2.21967         1.77419
H          9.01261         2.76395         1.85969
O         -6.24286         5.47332        -0.86880
H         -6.20787         4.72983        -1.52489
O         -7.07043        -0.16444        -2.47550
H         -8.04341        -0.07693        -2.34239
O         -2.05376       -10.33134        -2.51822
H         -1.83912        -9.47072        -2.95021
O         -1.38378        -0.82203        -3.67515
H         -0.66067        -0.22602        -3.99597
O         -6.98653         5.39440         2.76811
H         -6.92118         4.43254         2.97048
O          7.05978        -5.75411         0.04402
H          7.62248        -6.54445        -0.10084
O         -6.27440        -8.61216         0.86267
H         -5.60262        -9.31918         1.01709
O          1.27483         4.41998         0.78039
H          0.97431         3.47408         0.73864
O         -5.32077        -3.17786        -3.31418
H         -5.02839        -2.34434        -3.76164
O         -5.51610         3.18620        -2.02967
H         -4.73709         3.31401        -2.62336
O          0.25555         5.88554        -2.14547
H         -0.35604         5.29444        -2.65130
O          4.26202        -5.13598         3.39516
H          4.59654        -4.25785         3.68639
O          3.51447         6.11588         0.62855
H          2.91437         5.72371         1.30879
O          4.39240        -1.43797         1.80467
H          4.82323        -1.77615         2.62303
O         -9.82097        -3.91236        -0.86209
H         -9.40588        -4.03434        -1.74787
O          2.74704        -8.70206         3.65746
H          1.89507        -8.20124         3.65183
O          6.07399         7.49361         1.07846
H          6.90907         7.65106         1.56552
O          1.69034        -0.39538         0.04741
H          4.35633         0.65853         1.15370
O          7.50524        -3.20608        -0.80907
H          7.36838        -4.18621        -0.83186
O          5.26305        -2.48876        -1.53737
H          5.26178        -2.02428        -2.40429
O         -4.49123        -4.95357         0.79755
H         -3.54590        -4.63216         0.79578
O         -7.81968         7.47597        -0.05009
H         -7.35301         6.99586        -0.77445
H         11.77961        -1.23436         0.41582
H         11.85130         1.10201        -0.29760
H         10.80797         3.24970        -0.83116
H          9.68456         5.51466        -0.90198
H          8.49235         7.70405        -0.67938
H          7.12749         9.95498        -0.35503
H          4.99281        11.12870        -0.29089
H          2.35460        10.87724         0.47527
H          0.13999        10.65423         1.07546
H         -2.05961         9.94906         3.12911
H         -4.76006        10.79412         2.50696
H         -6.70201         9.50310         1.98425
H         -7.78605         7.54394         2.00343
H         -9.32708         5.42904         0.50432
H        -10.80329         2.97369         1.32223
H        -11.53241         0.87525         2.20189
H        -11.26905        -1.54337         2.48607
H        -10.12398        -3.63885         1.80848
H         -9.24382        -5.83043         0.74054
H         -8.03537        -7.63906        -1.08030
H         -6.68193        -9.33699        -2.06354
H         -4.54829       -10.56319        -2.37081
H         -2.13377       -11.11545        -0.62426
H         -0.23704       -10.89050         0.61146
H          1.91113       -10.74438         1.93598
H          4.48395       -10.66278         2.46238
H          6.57760        -9.43269         2.59440
H          7.86816        -7.30853         2.45887
H          9.13367        -5.14427         2.32185
H         10.46274        -3.11122         1.99172
