         640
 CSIRO Nanostructure Databank - Neutral Graphene Oxide Data Set
C         23.00484        27.36698         0.37414
C         23.01521        28.71131         0.46607
C         23.02420        31.67510         0.64819
C         23.06109        33.01599         0.42571
C         23.04393        35.91874        -0.01452
C         23.02908        37.29167        -0.15370
C         22.99952        40.23079        -0.21561
C         22.99347        41.61538        -0.22778
C         22.97260        44.55194        -0.27992
C         22.96231        45.92532        -0.29481
C         25.44663        24.59290        -0.31837
C         24.27894        25.21912        -0.08151
C         25.44352        27.41114        -0.14255
C         24.30341        26.61424         0.49555
C         25.46243        28.84046         0.37060
C         24.26247        29.46164         0.60088
C         25.50999        31.62651         1.09230
C         24.18269        30.86444         1.17842
C         25.51285        33.14193         0.83073
C         24.25528        33.80834         0.47634
C         25.49492        35.92807         0.06105
C         24.26011        35.19607         0.15621
C         25.47315        37.34704        -0.15016
C         24.22521        38.04966        -0.19115
C         25.43356        40.22107        -0.31377
C         24.20872        39.49454        -0.25093
C         25.42875        41.65050        -0.32821
C         24.19289        42.36203        -0.27681
C         25.42071        44.51737        -0.27614
C         24.19602        43.81305        -0.27562
C         25.41956        45.95499        -0.27763
C         24.18114        46.66147        -0.29487
C         25.37485        48.77995        -0.29402
C         24.18719        48.08084        -0.30051
C         27.97221        23.10151        -0.02559
C         27.95173        24.52375        -0.02827
C         26.72836        25.26918        -0.10202
C         27.97439        27.37763         0.15883
C         26.74878        26.66225         0.02190
C         27.97311        28.79851         0.34456
C         26.74020        29.53700         0.49168
C         28.03797        31.65684         1.00322
C         26.75053        30.89628         0.80144
C         27.96370        33.10331         0.52613
C         26.79013        33.81352         0.47147
C         27.93803        35.97074        -0.02349
C         26.74960        35.24519         0.16593
C         27.93486        37.37269        -0.30753
C         26.68822        38.07320        -0.31501
C         27.88228        40.23176        -0.52234
C         26.67755        39.51301        -0.40192
C         27.89608        41.65328        -0.46471
C         26.66650        42.36759        -0.37594
C         27.90225        44.49048        -0.34210
C         26.67805        43.79890        -0.32471
C         27.94475        45.97331        -0.07733
C         26.63396        46.69149        -0.26827
C         27.88080        48.84694        -0.32750
C         26.62387        48.09762        -0.27515
C         27.97944        50.18754        -0.02308
C         30.41427        23.06600         0.07846
C         29.15495        22.40012         0.04432
C         30.42293        24.48786         0.05499
C         29.19443        25.22267         0.04665
C         30.46042        27.34181         0.15629
C         29.20537        26.64896         0.11215
C         30.45798        28.78025         0.23297
C         29.22926        29.50079         0.37739
C         30.45104        31.62332         0.21666
C         29.24960        30.91299         0.48949
C         30.45250        33.03139         0.07995
C         29.25666        33.80416         0.39329
C         30.43149        35.97792        -0.40288
C         29.23936        35.30475         0.11105
C         30.40708        37.38847        -0.53711
C         29.15718        38.06813        -0.49869
C         30.40452        40.24876        -0.55132
C         29.14162        39.51034        -0.91436
C         30.39073        41.65585        -0.45740
C         29.13946        42.36795        -0.46970
C         30.39628        44.48823        -0.45812
C         29.14265        43.78785        -0.42460
C         30.40390        45.92399        -0.79978
C         29.09007        46.65260        -0.80939
C         30.42715        48.87590        -0.79068
C         29.08579        48.14891        -0.81438
C         30.43086        50.26959        -0.30674
C         29.22423        50.87924        -0.01631
C         32.87678        20.24008         0.33273
C         31.68653        20.92637         0.28621
C         32.90143        23.04151         0.04171
C         31.65696        22.34091         0.14693
C         32.88762        24.45180        -0.08906
C         31.67407        25.19124         0.02063
C         32.98127        27.31678         0.33428
C         31.66903        26.61557         0.09289
C         32.93734        28.79766         0.05984
C         31.69260        29.49620         0.14445
C         32.91115        31.63531        -0.12970
C         31.68119        30.90919         0.04777
C         32.91904        33.01342        -0.34054
C         31.63742        33.70253        -0.44243
C         32.93840        35.92266        -0.82774
C         31.62264        35.20445        -0.72262
C         32.91693        37.43333        -0.76006
C         31.62905        38.12723        -0.64822
C         32.87018        40.25030        -0.34473
C         31.63367        39.54241        -0.51515
C         32.86040        41.66324        -0.26649
C         31.62223        42.37032        -0.33964
C         32.87090        44.52156        -0.34908
C         31.61838        43.79996        -0.37113
C         32.87860        45.94698        -0.46945
C         31.67021        46.68137        -0.69204
C         32.91485        48.79688        -0.59732
C         31.67966        48.08536        -0.69121
C         32.92380        50.25333        -0.47342
C         31.70939        50.95768        -0.22377
C         32.97339        53.02393         0.08009
C         31.76988        52.33786         0.06307
C         35.41557        18.79049         0.11798
C         35.36052        20.18590         0.30222
C         34.13352        20.91252         0.25961
C         35.41706        23.00820        -0.07021
C         34.15418        22.33053         0.09222
C         35.44172        24.39380        -0.68694
C         34.12460        25.15004        -0.49698
C         35.44744        27.32410        -0.31243
C         34.14582        26.63352        -0.36257
C         35.40431        28.78294        -0.34251
C         34.13166        29.49877        -0.10421
C         35.38024        31.65322        -0.06111
C         34.15548        30.91739        -0.14295
C         35.41570        33.02659        -0.23863
C         34.18696        33.71274        -0.77684
C         35.35004        35.88269        -0.23960
C         34.17715        35.19849        -0.48524
C         35.29092        37.33698         0.18767
C         34.13032        38.13632        -0.34044
C         35.32640        40.24288         0.10850
C         34.11007        39.52324        -0.18598
C         35.30950        41.67220         0.10344
C         34.09256        42.38547        -0.11130
C         35.33508        44.53101        -0.05553
C         34.09243        43.81510        -0.16319
C         35.35362        45.93808        -0.21707
C         34.12043        46.64950        -0.41509
C         35.40251        48.75024        -0.74650
C         34.11736        48.06301        -0.55469
C         35.40933        50.27376        -0.75628
C         34.14603        50.97291        -0.46947
C         35.45964        53.08745        -0.23574
C         34.18775        52.36289        -0.20114
C         35.51345        54.48082        -0.11318
C         37.87538        18.80765         0.09003
C         36.61753        18.11408         0.02605
C         37.88507        20.17423         0.30850
C         36.62219        20.92770         0.64489
C         37.89255        23.05096         0.03390
C         36.62513        22.35867         0.14868
C         37.88176        24.50478        -0.10058
C         36.67763        25.18978        -0.26822
C         37.89674        27.36558        -0.02938
C         36.65652        26.63278        -0.24701
C         37.91204        28.76635         0.10880
C         36.68704        29.53561        -0.14046
C         37.88539        31.66701         0.35127
C         36.58675        30.91789         0.45687
C         37.87274        33.07708         0.21685
C         36.63085        33.77840        -0.05427
C         37.87464        35.96254        -0.25928
C         36.59558        35.18157        -0.12355
C         37.80733        37.40901         0.19354
C         36.59416        38.09282         0.14508
C         37.76808        40.20470         0.58000
C         36.55800        39.51648         0.26854
C         37.69801        41.66776         0.80335
C         36.51151        42.40784         0.35442
C         37.80283        44.53429         0.32299
C         36.54813        43.81286         0.24063
C         37.82375        45.94542         0.05909
C         36.60977        46.64935        -0.17735
C         37.86761        48.76387        -0.40659
C         36.65161        48.04773        -0.42552
C         37.88551        50.21254        -0.48824
C         36.68747        50.95450        -0.50694
C         37.93577        53.07657        -0.37514
C         36.69280        52.37307        -0.36930
C         37.94715        54.49101        -0.26523
C         36.73437        55.16568        -0.12070
C         40.35833        16.00896        -0.57168
C         39.15587        16.68977        -0.31650
C         40.36182        18.80467        -0.19517
C         39.12884        18.07257        -0.12917
C         40.38870        20.20341         0.02122
C         39.17063        20.91782         0.54833
C         40.36716        23.07010         0.00979
C         39.11069        22.37717         0.14660
C         40.36884        24.52273        -0.02101
C         39.12817        25.22570         0.00367
C         40.34626        27.37032         0.26771
C         39.12381        26.64472         0.08635
C         40.34014        28.78003         0.46762
C         39.09346        29.49777         0.42773
C         40.29491        31.65068         1.01138
C         39.06675        30.92134         0.53353
C         40.33814        33.10268         0.58417
C         39.10013        33.81721         0.31862
C         40.29338        35.97268         0.36879
C         39.09571        35.21988         0.21981
C         40.26213        37.36648         0.48766
C         39.02347        38.10815         0.46317
C         40.18633        40.23268         1.32407
C         38.98135        39.51355         0.71855
C         40.27107        41.70944         0.98426
C         39.00671        42.44879         0.94236
C         40.28354        44.52423         0.46167
C         39.01868        43.86394         0.56897
C         40.29969        45.93093         0.18005
C         39.07074        46.64160         0.01039
C         40.33758        48.74571        -0.29373
C         39.09245        48.05187        -0.22027
C         40.36315        50.16872        -0.48374
C         39.13299        50.90952        -0.48197
C         40.39648        53.01881        -0.68845
C         39.16379        52.33122        -0.49811
C         40.43185        54.44404        -0.73014
C         39.26534        55.23399        -0.16670
C         40.35888        57.26086        -1.11901
C         39.23189        56.64409        -0.70823
C         42.81409        16.00311        -0.92327
C         41.56203        16.70141        -0.68561
C         42.80082        18.84133        -0.59306
C         41.57653        18.12129        -0.51934
C         42.81861        20.21740        -0.35932
C         41.59088        20.92021        -0.11221
C         42.82576        23.08468        -0.48581
C         41.56993        22.35954        -0.07646
C         42.84507        24.53672        -0.08494
C         41.58849        25.23958        -0.00858
C         42.80297        27.38408         0.25100
C         41.58732        26.66602         0.18068
C         42.80461        28.77901         0.46852
C         41.57376        29.49039         0.59303
C         42.78928        31.61562         0.80226
C         41.58596        30.91390         0.74856
C         42.79692        33.07128         0.80363
C         41.54308        33.76560         0.57460
C         42.76001        35.90922         0.89739
C         41.60312        35.23094         0.20559
C         42.76224        37.38513         1.01712
C         41.52700        38.12649         0.62086
C         42.75833        40.18740         1.57225
C         41.50222        39.56827         0.97125
C         42.74256        41.70702         1.34491
C         41.46943        42.39211         0.96575
C         42.75677        44.50022         0.50921
C         41.50339        43.81366         0.66688
C         42.76807        45.90073         0.20046
C         41.54036        46.61798         0.07153
C         42.80139        48.71216        -0.33389
C         41.55748        48.02796        -0.17913
C         42.81823        50.10853        -0.63970
C         41.58955        50.83800        -0.66639
C         42.80754        52.91520        -1.20627
C         41.62229        52.27247        -0.87366
C         42.78152        54.34844        -1.64937
C         41.58704        55.10794        -1.13021
C         42.82854        57.18639        -1.43310
C         41.61586        56.53997        -1.23029
C         43.98826        16.65530        -1.02388
C         45.25678        18.68888        -0.15021
C         44.09252        18.15949        -1.01247
C         45.29790        20.20506        -0.20076
C         44.09873        20.92544        -0.26944
C         45.30368        23.03973         0.03256
C         44.10559        22.34676        -0.17822
C         45.30175        24.49213         0.13014
C         44.05057        25.20378         0.02402
C         45.31922        27.35325         0.44191
C         44.08991        26.70039        -0.12390
C         45.28824        28.77387         0.63011
C         44.05502        29.48911         0.59191
C         45.26343        31.59533         0.93113
C         44.04511        30.89905         0.77360
C         45.25941        33.05189         1.30844
C         44.00118        33.77101         0.91773
C         45.24778        35.91728         0.84442
C         44.05272        35.19685         0.87544
C         45.26825        37.36838         0.81022
C         44.05170        38.11386         0.99277
C         45.26270        40.22459         0.90923
C         44.03803        39.50109         1.08235
C         45.28012        41.64241         0.88893
C         44.03400        42.41836         1.08446
C         45.22684        44.48269         0.41083
C         43.99988        43.81627         0.60948
C         45.23661        45.88119         0.13203
C         44.00757        46.58546         0.02885
C         45.25759        48.66667        -0.46502
C         44.02375        47.99182        -0.25252
C         45.25334        50.06489        -0.77686
C         44.04529        50.76419        -0.89987
C         45.34397        52.90400        -1.30897
C         44.05258        52.13102        -1.53928
C         45.32790        54.32193        -1.32240
C         44.08793        55.07953        -1.43179
C         44.05115        56.45972        -1.41565
C         47.74122        18.77770        -0.46664
C         46.58858        18.07718        -0.49499
C         47.78241        20.20640        -0.20293
C         46.54136        20.89578        -0.09408
C         47.77383        22.99083         0.28871
C         46.54737        22.31581         0.08024
C         47.70257        24.40618         0.69794
C         46.47505        25.18270         0.43274
C         47.73816        27.30788         0.92846
C         46.49404        26.62106         0.60240
C         47.73704        28.76017         0.99964
C         46.50283        29.47280         0.85118
C         47.72733        31.62040         1.00020
C         46.48827        30.89687         0.94545
C         47.72971        33.04815         0.89403
C         46.51315        33.77902         0.89604
C         47.69333        35.89572         0.47905
C         46.50516        35.19550         0.75513
C         47.72996        37.33610         0.39805
C         46.47788        38.06240         0.62111
C         47.67723        40.20823         0.42513
C         46.47601        39.49753         0.63775
C         47.69780        41.61373         0.47039
C         46.47662        42.34202         0.63252
C         47.70096        44.45745         0.29842
C         46.47994        43.77183         0.47016
C         47.71984        45.87731         0.07736
C         46.48074        46.56468        -0.03926
C         47.72604        48.58486        -0.69092
C         46.48858        47.94427        -0.37459
C         47.60131        49.89957        -1.25212
C         46.49608        50.72420        -1.09633
C         47.78196        52.90828        -0.94379
C         46.56497        52.18708        -1.18658
C         47.74096        54.31759        -0.98150
C         46.56170        55.00671        -1.19174
C         50.25284        20.28057        -0.41834
C         49.00923        20.92378        -0.13946
C         50.28796        23.04820         0.27950
C         49.02516        22.32956         0.17973
C         50.28172        24.43863         0.73314
C         48.98083        25.13302         0.95330
C         50.16275        27.29009         1.44420
C         48.93536        26.61016         1.03138
C         50.18318        28.80584         1.47427
C         48.92960        29.48910         1.14828
C         50.19807        31.61776         1.03546
C         48.95283        30.91443         1.04707
C         50.19450        33.02268         0.80767
C         48.97088        33.71530         0.71565
C         50.21774        35.83034         0.00809
C         48.92569        35.11989         0.27771
C         50.22429        37.34179        -0.21367
C         48.91442        38.01991         0.15008
C         50.18820        40.19166         0.36527
C         48.91046        39.50921        -0.08471
C         50.18857        41.60102         0.48360
C         48.94260        42.32783         0.39206
C         50.18112        44.45261         0.38190
C         48.94227        43.73106         0.34497
C         50.18723        45.87009         0.27323
C         48.95205        46.59782        -0.00834
C         50.36189        48.67314        -0.47566
C         48.97582        47.96192        -0.39531
C         50.34175        50.18649        -0.24731
C         49.39746        50.98238        -0.89476
C         49.92993        52.90290         0.40572
C         49.04414        52.28844        -0.50802
C         51.40476        21.01446        -0.53020
C         52.68898        23.10214        -0.61029
C         51.45697        22.40533        -0.22059
C         53.16240        24.22366         0.08917
C         51.40909        25.13843         1.13398
C         52.62642        27.29843         1.39116
C         51.45827        26.58225         1.31885
C         52.77278        28.79651         1.54477
C         51.45935        29.53075         1.34248
C         52.73548        31.64316         1.38106
C         51.44016        30.89256         1.18023
C         52.67726        33.06957         0.88317
C         51.45569        33.74292         0.68643
C         52.65431        35.87643         0.48308
C         51.46265        35.13556         0.39305
C         52.63533        37.32545         0.50838
C         51.43404        38.03973         0.37397
C         52.59125        40.18100         0.84896
C         51.39849        39.47115         0.51289
C         52.61701        41.59073         0.91675
C         51.39750        42.31377         0.71260
C         52.59330        44.48009         0.83327
C         51.39653        43.75504         0.65047
C         52.59895        45.89047         0.73649
C         51.38730        46.57261         0.46854
C         52.59362        48.77362         0.75124
C         51.26872        48.06363         0.61855
C         52.55553        50.18102         0.83937
C         51.29450        50.86846         0.54381
C         51.07218        52.23235         0.84166
C         54.47140        23.50627        -2.24082
C         53.41837        22.73601        -1.77696
C         54.80159        24.75517        -1.63469
C         54.11839        25.11214        -0.43076
C         54.96875        27.43918        -0.48377
C         54.35979        26.40625         0.17095
C         55.00762        28.82412         0.03048
C         53.92510        29.47044         0.75560
C         55.09770        31.62930         0.53016
C         53.92939        30.87187         0.83570
C         55.12872        33.05518         0.61234
C         53.89051        33.77170         0.73018
C         55.12420        35.90371         0.58813
C         53.88976        35.18861         0.61167
C         55.10738        37.33099         0.71130
C         53.86802        38.00030         0.76921
C         55.15048        40.18870         1.15547
C         53.82127        39.42498         1.10166
C         55.10084        41.65705         1.04219
C         53.86498        42.30299         1.06589
C         55.09868        44.51014         1.07439
C         53.81467        43.77604         1.35742
C         55.05469        45.92798         1.03470
C         53.84095        46.62460         0.90206
C         55.03197        48.82371         0.95315
C         53.81540        48.07664         0.87963
C         54.97201        50.22739         1.04743
C         53.75411        50.89763         1.02472
C         56.87628        25.19606        -2.93340
C         55.78333        25.65814        -2.13946
C         57.11763        27.72422        -1.73339
C         55.69015        27.13585        -1.79022
C         57.09695        29.22017        -1.41075
C         56.13718        29.58987        -0.30088
C         57.50329        31.63898        -0.04711
C         56.26793        30.94993         0.10288
C         57.54588        33.04568         0.09305
C         56.33200        33.76194         0.38287
C         57.57303        35.91187         0.31085
C         56.34489        35.19329         0.44629
C         57.57700        37.34050         0.42666
C         56.35660        38.05748         0.68688
C         57.58200        40.21024         0.63721
C         56.37891        39.46398         0.80694
C         57.58249        41.64673         0.76992
C         56.34470        42.37601         0.97478
C         57.56578        44.54305         0.86460
C         56.32889        43.79939         1.02102
C         57.55394        45.92010         0.80186
C         56.33905        46.67912         1.28303
C         57.46848        48.75279         0.49039
C         56.30651        48.12713         0.87500
C         57.92700        25.98504        -3.32214
C         59.28131        28.07186        -2.88883
C         57.91285        27.46263        -3.04121
C         59.50540        29.14840        -2.04194
C         58.50883        29.71504        -1.23051
C         59.94636        31.66744        -0.57331
C         58.76100        30.81408        -0.22005
C         59.93539        33.02210        -0.48795
C         58.76372        33.77253        -0.10568
C         59.98293        35.95527        -0.09692
C         58.78246        35.19683         0.03764
C         59.98588        37.32578         0.02467
C         58.79351        38.06142         0.28355
C         60.00157        40.24348         0.30655
C         58.80098        39.50324         0.39426
C         59.99947        41.62197         0.45453
C         58.80940        42.33947         0.66428
C         59.95167        44.55438         0.12968
C         58.89499        43.82594         0.92895
C         59.89472        45.89351        -0.02766
C         58.73494        46.65562         0.40323
C         58.68285        48.03173         0.27920
O         41.68456        39.17535        -0.41506
O         29.65969        48.70721        -2.03086
O         48.70414        50.39297        -1.96499
O         54.48874        39.72177         2.38128
O         49.51123        35.19837        -1.12155
O         42.48128        36.53265         2.18992
O         38.16651        42.11610         2.13174
O         29.56943        46.09151        -2.04261
O         36.15912        29.38192        -1.48209
O         31.40790        34.26293        -1.85126
O         43.44167        42.36093         2.46064
O         25.60110        32.58109         2.21585
O         33.07004        36.69642        -2.06881
O         33.83395        26.04107        -1.66323
O         29.49123        34.77918         1.48815
O         52.61241        24.45920         1.35802
O         48.21460        24.56055         2.09203
O         35.43044        49.50647        -2.01063
O         50.06591        28.01411         2.72121
O         53.84923        26.61900         1.47174
O         38.07997        36.06635        -1.72434
H         38.88469        36.61008        -1.86796
O         56.53230        29.94889        -2.55552
H         55.62989        29.56169        -2.69863
O         44.38642        18.57493        -2.37692
H         43.63490        18.30221        -2.94336
O         33.27986        27.16623         1.76537
H         32.58492        27.64017         2.26975
O         50.39675        37.52237        -1.66941
H         49.93356        36.75137        -2.08175
O         39.34716        20.94904         2.01507
H         38.46840        21.21365         2.38859
O         48.85941        39.70511        -1.54451
H         49.50694        39.05633        -1.92703
O         59.32233        43.92708         2.33759
H         59.38513        44.88287         2.55167
O         25.17308        27.47349        -1.57267
H         25.93154        27.91829        -2.00473
O         43.98038        51.88719        -2.99133
H         43.70721        52.74600        -3.40139
O         44.20958        26.91179        -1.59506
H         43.37775        26.58209        -1.99933
O         59.04864        30.16453         1.07092
H         59.14598        30.87175         1.74284
O         34.21350        33.60077        -2.24139
H         33.35372        33.96058        -2.56706
O         45.26189        33.06928         2.79198
H         46.07879        32.61206         3.08646
O         40.14834        31.68058         2.48269
H         40.94139        32.13137         2.84549
O         36.61067        21.04396         2.14425
H         36.42578        20.14480         2.49344
O         42.61689        54.29357        -3.13993
H         41.69957        53.98801        -3.31191
O         53.67187        43.84712         2.84387
H         54.23920        43.14162         3.22403
O         40.01524        40.13251         2.75955
H         39.28312        40.75023         2.99899
O         41.92931        35.29037        -1.22112
H         41.24240        34.78749        -1.70799
O         28.30244        46.13724         1.34298
H         27.58218        45.74199         1.87867
O         24.60630        26.49814         1.91402
H         23.81777        26.13442         2.36651
O         34.98431        37.22176         1.64060
H         35.06778        38.11856         2.03165
O         50.92890        48.39685        -1.76870
H         50.37495        48.85960        -2.43446
O         42.71387        39.94910         2.99067
H         43.16527        40.70928         3.42484
O         54.95550        27.80035        -2.86564
H         55.49796        27.67169        -3.68690
O         28.23332        31.75244         2.45672
H         27.41401        32.17593         2.81182
O         56.48603        46.70930         2.75720
H         56.36948        45.78838         3.07674
O         39.52506        55.36225         1.27624
H         40.38314        55.82663         1.37583
O         50.54115        48.29650         1.86499
H         51.06079        47.90027         2.59561
O         52.91990        31.75490         2.82677
H         52.98896        30.83171         3.17785
O         44.95093        18.30457         1.22149
H         45.65677        18.66271         1.79930
O         29.12018        39.49122        -2.40305
H         29.15651        40.42427        -2.70515
O         36.36610        30.69565         1.89039
H         36.62356        31.51034         2.37141
O         57.26470        28.08951        -4.19700
H         57.23665        29.06121        -4.00477
O         53.15310        28.97678         2.95497
H         53.88556        28.34848         3.13871
O         42.75632        23.11918        -1.96912
H         43.61338        23.47355        -2.29002
O         57.81635        27.08207        -0.65345
H         57.92657        26.13419        -0.87895
O         35.59818        24.17325        -2.11977
H         35.18227        24.94914        -2.56480
O         23.89154        30.66416         2.59509
H         24.19829        31.48070         3.05329
H         22.05555        26.81107         0.32598
H         22.06289        29.25924         0.47829
H         22.04766        31.17519         0.58687
H         22.12337        33.50550         0.12684
H         22.08255        35.39043         0.02206
H         22.05636        37.79524        -0.23152
H         22.03558        39.70737        -0.16739
H         22.02381        42.12865        -0.18832
H         22.01302        44.01881        -0.28288
H         22.00832        46.47183        -0.30637
H         25.44891        23.55690        -0.68661
H         23.31817        24.70230        -0.22956
H         25.35625        49.87790        -0.32038
H         23.22862        48.61920        -0.31733
H         27.02777        22.54221        -0.05925
H         27.08894        50.74496         0.29992
H         29.11337        21.30295         0.05630
H         29.20315        51.93108         0.29956
H         32.85226        19.15046         0.46770
H         30.74949        20.36152         0.37612
H         32.96317        54.09773         0.30755
H         30.84758        52.89705         0.26753
H         34.48619        18.22258        -0.02841
H         34.59157        55.06698        -0.00385
H         36.59553        17.03198        -0.15230
H         36.71799        56.25649         0.00595
H         40.34672        14.91580        -0.68919
H         38.23291        16.09807        -0.25826
H         40.34286        58.32241        -1.40955
H         38.29760        57.21943        -0.64140
H         42.78198        14.90486        -0.99475
H         42.85838        58.28345        -1.49647
H         44.90693        16.08078        -1.21390
H         44.97905        57.04521        -1.35871
H         48.68139        18.24341        -0.66124
H         46.62880        16.99369        -0.67932
H         48.67276        54.88431        -0.84612
H         46.59603        56.10288        -1.22898
H         50.29001        19.20316        -0.62150
H         49.73357        53.92258         0.76569
H         52.33435        20.50927        -0.82769
H         51.78244        52.76256         1.49137
H         54.99141        23.20099        -3.15926
H         53.11858        21.84387        -2.34496
H         55.89957        50.80684         1.15223
H         53.73547        51.99390         1.09609
H         56.90656        24.12322        -3.18043
H         57.46309        49.82578         0.24944
H         58.75530        25.55568        -3.90403
H         60.11186        27.67302        -3.49020
H         60.53441        29.53271        -1.96974
H         60.88732        31.16139        -0.83393
H         60.86145        33.56651        -0.72196
H         60.93440        35.44481        -0.29680
H         60.94121        37.85457        -0.08996
H         60.96091        39.73480         0.14723
H         60.95977        42.15373         0.42372
H         60.83808        44.00728        -0.22183
H         60.71245        46.43314        -0.52953
H         59.56949        48.57894        -0.07226
