         720
 CSIRO Nanostructure Databank - Neutral Graphene Oxide Data Set
C         22.93690        27.29010        -0.35101
C         22.95653        28.65094        -0.13432
C         22.94812        31.64665        -0.11591
C         22.97091        33.00866         0.04894
C         23.00582        36.02307         0.36823
C         23.02297        37.33213         0.73803
C         23.20074        40.25392         1.82337
C         23.16233        41.60349         1.76701
C         23.17366        44.57127         1.86397
C         23.30136        45.79432         2.42073
C         25.28123        24.52019        -1.39700
C         24.08560        25.21039        -1.07403
C         25.42023        27.19604        -0.52494
C         24.11197        26.53596        -0.65789
C         25.44477        28.70872        -0.25336
C         24.15060        29.44093        -0.16415
C         25.41259        31.57809         0.02449
C         24.13845        30.84450        -0.10930
C         25.43802        33.05626         0.04256
C         24.18629        33.77700         0.18881
C         25.44931        35.85473         0.65726
C         24.17675        35.16511         0.41192
C         25.46621        37.31447         0.69281
C         24.26606        37.98172         1.31054
C         25.49125        40.19780         1.01262
C         24.32407        39.50807         1.28154
C         25.54407        41.65822         1.02303
C         24.18631        42.34573         0.93370
C         25.60764        44.58660         1.09082
C         24.26532        43.87359         1.14422
C         25.69874        46.01601         1.53933
C         24.49482        46.63830         2.23434
C         25.94987        48.40418         3.14595
C         24.77793        47.74888         3.17289
C         27.87904        22.95038        -1.67778
C         27.75810        24.43134        -1.97902
C         26.51583        25.15421        -1.45165
C         27.73075        27.34405        -1.42728
C         26.60118        26.56217        -1.15099
C         27.73561        28.77342        -1.24821
C         26.64475        29.43031        -0.71204
C         27.87979        31.65799        -0.74689
C         26.70619        30.85647        -0.36392
C         27.88428        33.04449        -0.47914
C         26.66809        33.70578        -0.05257
C         27.94294        35.90983        -0.01173
C         26.74918        35.11551         0.35489
C         27.92926        37.26882         0.19265
C         26.79093        37.96844         0.90085
C         27.98770        40.21550         0.47234
C         26.70511        39.45508         0.58599
C         28.03353        41.56825         1.14273
C         26.74895        42.35249         1.00405
C         28.08359        44.42746         1.37442
C         26.85796        43.78984         1.13536
C         28.17128        45.85421         1.68904
C         27.02189        46.60942         1.80509
C         28.38464        48.60199         2.55180
C         27.02821        48.09547         2.11288
C         28.51036        49.94589         2.94402
C         30.31131        22.97275        -0.92310
C         29.01741        22.31056        -1.36006
C         30.25142        24.48208        -1.16678
C         28.99231        25.18679        -1.53874
C         30.26701        27.40402        -1.82291
C         28.97961        26.65567        -1.86162
C         30.23163        28.82367        -1.29043
C         28.95230        29.56853        -1.71995
C         30.25094        31.69703        -1.32954
C         29.02876        31.00149        -1.22832
C         30.29714        33.09448        -1.04159
C         29.09860        33.77999        -0.66696
C         30.36278        35.86750        -0.54421
C         29.13210        35.19839        -0.45811
C         30.40266        37.33393        -0.43954
C         29.11715        38.06930        -0.11020
C         30.48713        40.13039         0.22362
C         29.22457        39.44197         0.38196
C         30.51521        41.64063         0.48067
C         29.29118        42.35068         0.88171
C         30.60519        44.38542         1.30873
C         29.33525        43.69315         1.22541
C         30.67794        45.74223         1.69014
C         29.47555        46.47216         1.93692
C         30.83033        48.31390         3.01557
C         29.53525        47.80109         2.42525
C         30.95113        49.81388         3.12895
C         29.75697        50.54375         3.18154
C         32.72673        20.33537        -0.46966
C         31.73252        20.90286        -1.16077
C         32.82992        23.15525        -0.92699
C         31.63771        22.37082        -1.48834
C         32.77910        24.51088        -0.91750
C         31.55334        25.18149        -1.40995
C         32.77833        27.39921        -1.27911
C         31.56195        26.64894        -1.66240
C         32.73676        28.86172        -1.29341
C         31.49424        29.59315        -1.59688
C         32.75063        31.71636        -1.62390
C         31.50340        30.98185        -1.56293
C         32.78303        33.09507        -1.42561
C         31.55111        33.79068        -1.09782
C         32.84007        35.86730        -0.70585
C         31.57620        35.16822        -0.80092
C         32.86206        37.21707        -0.29466
C         31.68359        37.99554        -0.11737
C         33.03308        40.10539         0.18982
C         31.72973        39.34168         0.22801
C         33.03191        41.47411         0.85563
C         31.79193        42.28877         0.78837
C         33.09062        44.36494         0.92453
C         31.81389        43.62890         1.11688
C         33.18526        45.73496         1.46475
C         31.98480        46.38919         1.86914
C         33.31127        48.28085         2.70622
C         32.05581        47.67881         2.43226
C         33.46111        49.70684         2.99023
C         32.23975        50.43050         3.23740
C         33.49314        52.51534         3.35521
C         32.33306        51.81948         3.56057
C         35.27738        18.92845        -0.33342
C         35.23743        20.34631        -0.05578
C         33.91162        21.07039         0.10423
C         35.17362        23.18959        -0.14424
C         34.02456        22.49614        -0.38165
C         35.26447        24.65582        -0.50650
C         33.89437        25.34640        -0.32614
C         35.19254        27.47191        -0.85580
C         33.93057        26.76047        -0.88807
C         35.28942        28.78387        -1.35668
C         34.06420        29.58146        -1.40435
C         35.34089        31.71949        -1.98068
C         34.01892        30.98503        -1.89577
C         35.32253        33.16189        -1.67852
C         34.04980        33.81744        -1.40800
C         35.38125        35.81373        -0.68282
C         34.04860        35.14930        -0.97196
C         35.25341        37.32284        -0.85710
C         34.15783        37.84825         0.01796
C         35.60942        39.89451         0.53515
C         34.24687        39.24510         0.50332
C         35.65553        41.37185         0.75362
C         34.37179        42.15924         0.92616
C         35.67595        44.44446         0.56215
C         34.36690        43.63415         0.64201
C         35.75841        45.57198         1.59161
C         34.44107        46.23451         1.88256
C         36.27067        48.49375         2.52348
C         34.41730        47.41221         2.64411
C         35.94844        49.83741         2.37866
C         34.68568        50.42835         2.76886
C         35.65689        52.67517         2.18704
C         34.64059        51.88376         2.77764
C         35.64749        54.09092         2.22902
C         37.70029        18.85749         0.01816
C         36.45363        18.23992        -0.34132
C         37.67521        20.30413         0.46926
C         36.39978        21.03614         0.14602
C         37.69557        23.23819         0.12018
C         36.38971        22.51697         0.46613
C         37.72494        24.61930         0.06424
C         36.39672        25.41193         0.23115
C         37.41146        27.73047        -0.01977
C         36.35893        26.85440        -0.29927
C         37.71530        28.90840        -0.73807
C         36.59624        29.44967        -1.51551
C         37.87450        31.68553        -1.44678
C         36.64249        30.97456        -1.82160
C         37.88722        33.20561        -1.44797
C         36.53492        33.86771        -1.74145
C         37.40719        36.18163        -2.08925
C         36.46996        35.28609        -1.56485
C         37.57054        37.50959        -1.63847
C         36.56519        38.04543        -0.76767
C         38.18222        39.75909         0.03467
C         36.75586        39.24328        -0.14371
C         38.20451        41.27691         0.36382
C         36.90902        42.07500         0.34599
C         38.20812        44.27903         0.55174
C         36.92495        43.56753         0.43792
C         38.22195        45.64065         0.77669
C         37.10703        46.31247         1.52329
C         38.10413        48.54503         0.93900
C         37.22749        47.78982         1.71472
C         38.07283        49.97970         0.99243
C         37.12504        50.69658         1.93540
C         37.90599        52.85089         0.95294
C         36.68547        52.00755         1.29855
C         37.88249        54.23349         1.19532
C         36.69844        54.83598         1.74022
C         40.12262        16.03558        -0.06316
C         38.94587        16.72069        -0.11768
C         40.14016        18.87770         0.51129
C         38.88453        18.14462         0.08570
C         40.18752        20.27482        -0.15360
C         38.91439        21.07481         0.06906
C         40.20472        23.10778        -0.40810
C         38.92562        22.44487        -0.04385
C         40.16699        24.56537        -0.70540
C         38.99342        25.29845        -0.17511
C         40.30386        27.46446        -0.24893
C         39.19268        26.62947         0.11988
C         40.18913        28.90544        -0.32840
C         38.99298        29.57694        -0.68976
C         40.31094        31.71899        -1.06101
C         39.02543        30.99440        -1.07794
C         40.34935        33.03509        -1.70026
C         39.19143        33.73463        -2.07701
C         40.51360        35.80210        -2.64921
C         39.32656        35.03957        -2.65283
C         40.55903        37.23338        -2.64829
C         38.70624        38.34216        -1.93857
C         40.49519        39.99089        -1.20932
C         39.10792        39.40083        -1.15833
C         40.64488        41.39075        -0.58757
C         39.45552        42.05415         0.09560
C         40.63956        44.36563        -0.19843
C         39.44917        43.55538         0.25602
C         40.43958        45.82789        -0.29774
C         39.33798        46.41747         0.28180
C         40.11077        48.69859        -0.59105
C         38.98604        47.84414        -0.06478
C         39.76848        50.02465        -0.73515
C         38.91015        50.74494         0.17800
C         40.20774        52.97907         0.06688
C         39.02559        52.21154         0.33669
C         40.25519        54.35945         0.50297
C         39.08227        55.00840         0.99890
C         40.33388        57.07558         1.35416
C         39.14410        56.37558         1.37408
C         42.59499        15.99226        -0.01002
C         41.38781        16.71728         0.07576
C         42.65329        18.80403         0.23006
C         41.42162        18.12202         0.23089
C         42.69261        20.27037         0.20868
C         41.40704        21.07627         0.33740
C         42.71092        23.09964        -0.65411
C         41.40212        22.44614        -0.34633
C         42.82112        24.62686        -0.89217
C         41.47579        25.34385        -0.79535
C         42.75975        27.50495        -0.40009
C         41.50609        26.78438        -0.46677
C         42.73345        28.92093        -0.31497
C         41.44878        29.68992        -0.03373
C         42.75099        31.83646        -0.55581
C         41.47080        31.08697        -0.63540
C         42.85436        33.13662        -1.29106
C         41.65914        33.61601        -2.02885
C         42.99088        35.86981        -2.24618
C         41.76462        35.08728        -2.45877
C         42.93513        37.26965        -2.23164
C         41.68669        37.98369        -2.27715
C         42.84500        40.19823        -2.16517
C         41.66697        39.42314        -2.00697
C         42.71641        41.65273        -1.97622
C         41.70045        42.26852        -1.16762
C         42.73337        44.51398        -1.48974
C         41.66853        43.67123        -1.01535
C         42.68619        45.91564        -1.41752
C         41.63133        46.67895        -0.66891
C         42.54656        48.90350        -1.63330
C         41.30373        48.07665        -1.21993
C         42.64254        50.34127        -1.26858
C         41.54145        51.14690        -1.10742
C         42.69490        53.05338        -0.20568
C         41.48269        52.40909        -0.40203
C         42.74636        54.54096        -0.05924
C         41.47147        55.10594         0.49899
C         42.81243        57.11752         1.05662
C         41.52540        56.43112         0.94843
C         43.81161        16.65054         0.06923
C         45.14947        18.73941         0.26909
C         43.86922        18.05687         0.17264
C         45.20493        20.22347        -0.01083
C         43.87890        20.92494         0.12937
C         45.18812        23.10224         0.15105
C         43.94792        22.36735        -0.22776
C         45.18633        24.56172         0.08509
C         43.84893        25.28970         0.04461
C         45.27799        27.42386        -0.51181
C         43.95179        26.76425        -0.29718
C         45.27600        28.90701        -0.23883
C         44.00719        29.60417        -0.08330
C         45.32352        31.75899        -0.55849
C         44.04565        31.15074        -0.20648
C         45.33453        33.24093        -0.84295
C         44.20022        33.64659        -1.80084
C         45.41604        35.83584        -1.98671
C         44.21595        35.15763        -2.01656
C         45.44972        37.23584        -2.45441
C         44.16069        38.04284        -2.47319
C         45.41943        40.12808        -2.61769
C         44.15758        39.54058        -2.45084
C         45.59433        41.55422        -2.84394
C         43.64966        42.55500        -2.54750
C         45.20412        44.47579        -2.00252
C         43.83812        43.87452        -2.15385
C         45.19755        45.91001        -1.57867
C         43.91083        46.66782        -1.75040
C         45.13956        48.91862        -1.53042
C         43.87676        48.17594        -1.75670
C         45.19162        50.27204        -1.30510
C         43.93286        50.89561        -0.81582
C         45.32421        53.01083        -0.31861
C         43.95953        52.30203        -0.28707
C         45.18367        54.51988        -0.19983
C         44.03593        54.98392         0.67248
C         43.98779        56.47138         0.93734
C         47.56509        18.83531         0.70099
C         46.33392        18.10657         0.54291
C         47.59414        20.19980         0.82522
C         46.24744        20.91804         0.87568
C         47.54015        23.10359         0.92584
C         46.29206        22.40385         0.57942
C         47.59236        24.58518         0.70430
C         46.34735        25.25946         0.27923
C         47.68336        27.48174         0.47847
C         46.37459        26.73985         0.28711
C         47.73255        28.91654         0.07549
C         46.47842        29.60457        -0.15522
C         47.79232        31.66657        -0.58706
C         46.51423        31.03959        -0.39280
C         47.87452        32.93625        -1.39668
C         46.64348        33.78497        -1.33711
C         47.86898        35.87843        -1.55414
C         46.67024        35.14499        -1.67158
C         47.78880        37.34215        -1.52819
C         46.81329        37.89118        -2.54417
C         47.97373        40.22056        -2.19625
C         46.73697        39.41699        -2.59312
C         47.97595        41.75518        -2.18812
C         46.60847        42.35817        -2.41024
C         47.73191        44.57493        -1.80428
C         46.53888        43.88757        -2.51025
C         47.74717        46.01902        -1.64778
C         46.46095        46.69810        -1.46599
C         47.67131        48.94468        -1.58943
C         46.41594        48.20461        -1.43216
C         47.62827        50.39766        -1.76143
C         46.40494        51.04756        -1.50781
C         47.14382        53.51053        -2.00699
C         46.06748        52.54003        -1.61074
C         47.10164        54.82568        -1.67983
C         46.07433        55.34271        -0.79768
C         50.08312        20.29251         1.41023
C         48.81978        20.95461         1.06590
C         50.05899        23.08597         1.23626
C         48.79835        22.32966         1.02139
C         50.12103        24.53498         0.90221
C         48.89970        25.23513         0.28139
C         50.19504        27.41079         0.14089
C         48.92891        26.71708         0.54881
C         50.15102        28.87953         0.61110
C         48.92741        29.60652         0.10625
C         50.22649        31.74080        -0.19785
C         48.98519        31.00578        -0.26124
C         50.30988        33.10507        -0.49930
C         49.16834        33.73069        -1.19115
C         50.28555        36.00799        -0.73937
C         49.15142        35.23175        -1.28961
C         50.22878        37.39729        -0.71787
C         49.00404        38.11465        -1.14256
C         50.13624        40.25657        -0.90821
C         49.09496        39.53966        -1.49124
C         50.02803        41.70048        -0.78873
C         48.69647        42.39048        -1.00804
C         49.94008        44.61474        -0.73510
C         48.82031        43.88981        -1.29110
C         50.22810        46.06929        -1.16470
C         48.89402        46.77263        -1.37007
C         50.09781        48.98727        -1.30189
C         48.84227        48.20455        -1.41774
C         50.13216        50.14158        -2.27606
C         48.88069        51.02853        -2.18434
C         50.26557        52.72970        -3.34206
C         49.00980        52.25166        -2.81593
C         51.12723        20.96074         1.95321
C         52.21975        23.28347         2.64837
C         51.07540        22.43586         2.13256
C         52.27312        24.76657         2.32565
C         51.17152        25.41990         1.50340
C         52.59950        27.45090         1.05699
C         51.33105        26.73687         0.88780
C         52.67530        28.92250         0.88631
C         51.46278        29.56813         0.32712
C         52.60501        31.84702         0.72094
C         51.48996        31.03071         0.09868
C         52.79493        33.14701        -0.06167
C         51.48916        33.88662        -0.27364
C         52.62567        36.07713         0.07994
C         51.47733        35.29774        -0.34630
C         52.55250        37.47402         0.13283
C         51.36102        38.17345        -0.28122
C         52.41095        40.40958         0.15681
C         51.26062        39.58304        -0.28878
C         52.43680        41.84484        -0.29567
C         51.06056        42.44243        -0.28746
C         52.78815        44.93383         0.05790
C         50.85515        43.84372        -0.04753
C         52.66800        46.25515        -0.35722
C         51.27460        46.90035        -0.26761
C         52.67417        49.12330        -0.87148
C         51.33178        48.37922        -0.72962
C         52.61757        50.32789        -1.80299
C         51.44904        50.89118        -2.27853
C         51.44516        52.11568        -3.04044
C         54.59965        23.42293         3.34055
C         53.49262        22.68244         3.10455
C         54.68797        24.83991         3.00121
C         53.59167        25.44060         2.40871
C         54.91112        27.57784         2.13661
C         53.74341        26.76302         1.78001
C         55.06083        28.87409         1.46428
C         53.84934        29.62485         1.04204
C         55.06444        31.81552         1.09284
C         53.91169        31.08295         0.90250
C         55.07500        33.28141         0.96154
C         53.90285        33.97604         0.53730
C         55.02271        36.12218         0.82499
C         53.84332        35.37545         0.50283
C         55.00115        37.54535         0.75136
C         53.66055        38.22830         0.86348
C         54.96388        40.46224         0.24975
C         53.68589        39.75154         0.59619
C         55.00452        41.78386        -0.09120
C         53.74558        42.58515        -0.27880
C         55.06640        44.72201        -0.58735
C         53.86714        44.08001        -0.24837
C         55.09121        46.12733        -0.78592
C         53.86588        46.87816        -0.80611
C         55.10027        48.89939        -1.45704
C         53.89465        48.26357        -1.13913
C         55.06877        50.30452        -1.81112
C         53.89740        50.96760        -2.01333
C         56.98178        25.08971         3.96620
C         55.90478        25.61192         3.25329
C         57.13809        27.79946         3.13451
C         55.98090        26.99060         2.80095
C         57.22293        29.14360         2.76014
C         56.34376        29.67325         1.72302
C         57.38562        31.94848         2.09745
C         56.41873        31.13203         1.27195
C         57.50359        33.33915         1.61230
C         56.25592        34.02576         1.19988
C         57.43517        36.22907         1.36146
C         56.24329        35.44424         1.11227
C         57.43467        37.62253         1.05301
C         56.19354        38.26430         0.76007
C         57.53362        40.31242         0.01438
C         56.20126        39.64100         0.21644
C         57.57725        41.74415        -0.44441
C         56.23993        42.43905        -0.73775
C         57.61593        44.68996        -0.49636
C         56.31166        43.93277        -0.42407
C         57.57569        46.10222        -0.90800
C         56.34558        46.79839        -1.03255
C         57.59156        48.80009        -1.71043
C         56.34560        48.17392        -1.41537
C         58.12262        25.86733         4.26792
C         59.40306        27.99836         4.13417
C         58.20890        27.20201         3.89611
C         59.41096        29.33006         3.90990
C         58.12329        30.04666         3.56983
C         59.26811        32.31025         3.60671
C         58.28239        31.43812         2.99305
C         59.45966        33.59199         3.20744
C         58.66154        34.17622         2.11948
C         59.74664        36.42961         2.12934
C         58.60097        35.64247         1.91442
C         59.78955        37.75397         1.72429
C         58.65586        38.38553         1.14794
C         59.84747        40.57630         0.90943
C         58.71545        39.73327         0.67887
C         59.94547        41.86615         0.46116
C         58.86885        42.50064        -0.32035
C         60.05002        44.64363        -0.90143
C         58.88684        43.96474        -0.57477
C         60.02279        46.01421        -1.20794
C         58.80225        46.73740        -1.24522
C         58.77777        48.10894        -1.63889
O         56.20162        28.82376         0.53827
O         58.71046        33.52305         0.80051
O         44.00703        30.50675         1.10774
O         33.52015        44.05998        -0.46966
O         39.13078        41.52988         1.44241
O         27.14568        39.94699        -0.71436
O         24.79386        46.92128         0.82305
O         51.76267        30.09716        -1.00244
O         29.62816        37.97456        -1.50299
O         44.51874        42.11192        -3.53918
O         40.35676        50.78339        -1.75311
O         40.66272        25.02924        -2.00132
O         29.60197        27.13894        -3.09827
O         38.20681        35.70417        -3.13710
O         49.59427        34.36713        -2.44268
O         26.31978        35.28813         1.75864
O         47.71484        39.84600        -3.60117
O         33.69170        41.71254         2.14158
O         51.19745        25.50692         2.99214
O         25.67787        27.74030         0.81235
O         58.50158        41.80466        -1.58482
O         50.45211        49.24675         0.09560
O         43.99117        51.15395         0.64845
O         51.76170        44.40427         0.83390
O         47.80733        37.92905        -0.19214
O         41.06716        40.21843         0.14903
O         42.62312        33.15158         0.15030
O         43.54487        22.43392        -1.67111
O         56.89633        39.55530        -1.09293
O         50.70009        23.55620        -0.03089
O         53.11582        42.11263        -1.56048
O         41.57545        48.41699        -2.60257
O         33.37971        29.47192        -0.09897
O         29.38544        25.06934        -0.12964
O         24.76426        44.47506        -0.10019
O         36.81889        42.85032        -0.88459
O         56.94733        44.31545         0.82491
O         52.81186        40.40507         1.58430
O         47.98217        53.14861        -3.06906
O         30.47200        41.13656        -0.92834
O         40.54011        43.90026         1.18819
O         36.89496        29.96906        -2.84710
O         34.61454        31.28913        -3.18720
O         46.67915        27.28837         1.59707
O         35.92494        40.46083         1.85205
O         35.53029        47.72592         3.42664
O         31.75951        25.69859        -2.77143
O         26.31823        31.03744         1.04442
O         45.23104        44.85644        -0.57148
O         44.75827        37.48277        -3.72282
O         47.48296        24.07220         2.06655
O         39.43756        37.94064        -3.06741
O         38.28539        27.27607         0.97591
O         46.42803        47.40974        -0.16963
O         43.93894        47.41061        -3.02523
O         51.08500        22.91363         3.50986
O         41.92327        33.95698        -3.41735
O         36.70019        45.47297         2.67053
O         34.23313        38.14033         1.45163
O         53.64144        26.69144         0.29144
O         50.83761        46.86778         1.08743
H         50.33486        47.69862         1.25490
O         35.73470        35.52962         0.69393
H         36.38220        34.78829         0.70172
O         26.69419        48.82288         0.89962
H         25.87573        48.39980         0.53789
O         42.88309        55.07159        -1.41893
H         42.07286        54.83852        -1.91938
O         41.24967        21.38222         1.74366
H         41.03039        20.52476         2.19517
O         56.00800        42.35941        -2.15777
H         56.21857        41.44362        -2.44402
O         46.08277        52.58642         0.83458
H         45.68706        51.72611         1.12723
O         47.89399        32.45371        -2.78450
H         48.41995        33.11068        -3.30111
O         28.13773        41.20498         2.57250
H         28.21561        42.03439         3.09049
O         38.02210        33.59325        -0.02262
H         38.79146        33.11276         0.35622
O         38.69929        39.05217         1.17687
H         39.36473        39.64584         1.60271
O         35.65350        45.20009        -0.67013
H         35.52952        44.56459        -1.40891
O         50.41012        27.39659        -1.28766
H         50.03671        26.54989        -1.63241
O         34.73665        37.56166        -2.19813
H         35.41773        37.28918        -2.84989
O         31.58267        22.53948        -2.91785
H         32.39824        22.16865        -3.31219
O         37.69663        20.26168         1.95437
H         37.36207        21.14589         2.26403
O         50.06585        49.48622        -3.58664
H         50.12960        50.18424        -4.27272
O         23.74326        42.14947        -0.44158
H         24.21022        42.82899        -0.98210
O         43.32779        24.86552        -2.21795
H         42.62517        24.59825        -2.85082
O         33.54876        25.47694         1.07086
H         34.37304        25.67502         1.58138
O         53.33741        38.05195         2.27748
H         52.75775        38.81070         2.52980
O         40.32364        20.03035        -1.57319
H         40.42408        20.89607        -2.02341
O         40.09310        19.02681         1.96121
H         39.19245        19.38053         2.19804
O         35.61920        24.74209        -1.90903
H         34.87463        24.38396        -2.43720
O         38.10779        47.67698        -1.24648
H         38.67565        47.48882        -2.02460
O         45.61509        27.22741        -1.93118
H         45.06134        26.49218        -2.27932
O         48.98033        25.04435        -1.16741
H         49.60028        24.28566        -1.31420
O         24.29126        37.64381         2.74357
H         25.20487        37.84920         3.05734
O         30.20786        28.65535         0.15050
H         30.39134        29.51920         0.57616
O         46.64525        44.26139        -3.90461
H         47.41510        43.77260        -4.27144
O         37.85434        51.04509         3.14383
H         38.12784        50.21753         3.59206
O         33.22327        40.44208        -1.22748
H         32.35598        40.78074        -1.56276
O         36.00872        51.66439         0.05680
H         35.70891        52.49586        -0.36584
O         57.00837        31.14922        -0.05684
H         56.71627        30.32196        -0.50758
O         30.80573        47.83278         4.42257
H         30.08930        48.32317         4.87970
O         42.26131        47.00757         0.62555
H         42.44579        46.16575         1.09731
O         52.95498        49.69294         0.44375
H         52.09495        50.02217         0.79387
O         53.24417        32.75531        -1.38666
H         53.31037        33.55661        -1.94631
O         41.39680        29.90163         1.42348
H         42.28789        30.24278         1.69260
O         45.63733        20.38770        -1.39165
H         44.90696        20.79387        -1.90748
O         43.28729        25.17258         1.38040
H         43.92225        25.55965         2.02039
O         47.86471        42.20642         0.15867
H         48.22745        42.74058         0.89563
O         36.12711        25.46153         1.65219
H         36.85832        25.97270         2.06600
O         44.45068        33.00065        -3.06068
H         43.74861        33.29530        -3.68881
O         45.77561        20.81487         2.24713
H         46.37421        21.34081         2.81853
O         36.23415        22.58801         1.92847
H         35.34670        22.19174         2.12205
O         47.36965        37.42380        -3.79488
H         46.70179        37.60333        -4.49358
O         50.07747        28.86338         2.06499
H         49.30071        28.32064         2.32749
O         28.89975        29.68133        -3.15874
H         29.02506        28.77283        -3.53421
O         45.14019        33.92032         0.42915
H         44.24783        33.66626         0.77518
O         27.08139        37.88773         2.35152
H         27.06228        36.91869         2.56102
O         27.72435        24.55605        -3.42736
H         26.93719        24.07674        -3.75909
O         44.11799        54.30592         1.94554
H         44.91737        53.72841         1.94189
O         52.13503        32.22447         2.04113
H         51.93577        31.41122         2.55099
O         57.43811        30.27153         4.85722
H         57.39451        29.40740         5.32007
O         45.08170        52.65013        -2.68460
H         45.55570        52.55987        -3.53867
O         50.89624        45.95874        -2.44983
H         50.31027        45.46538        -3.06195
O         33.70619        21.16509         1.55717
H         32.84106        21.60900         1.69721
O         48.74839        42.16809        -3.35647
H         48.55081        41.51156        -4.06572
O         30.40361        22.76854         0.50573
H         29.81091        23.43577         0.92386
H         21.97177        26.76213        -0.33968
H         21.99970        29.15692         0.05785
H         21.97318        31.14930        -0.21859
H         22.01196        33.54444         0.08693
H         22.05806        35.59095         0.01175
H         22.09555        37.92162         0.67589
H         22.39799        39.69283         2.32405
H         22.29417        42.13461         2.18079
H         22.23718        44.02257         2.03702
H         22.47871        46.20239         3.02805
H         25.20843        23.45479        -1.66070
H         23.12544        24.67956        -1.14647
H         26.12715        49.22699         3.85557
H         24.00859        48.00222         3.91892
H         26.98493        22.33847        -1.88569
H         27.61316        50.57979         2.96648
H         28.97592        21.21521        -1.24424
H         29.77576        51.62967         3.34758
H         32.64863        19.26250        -0.23709
H         30.90546        20.26939        -1.51896
H         33.50376        53.59274         3.56382
H         31.45383        52.35512         3.94182
H         34.35011        18.39878        -0.58596
H         34.82141        54.62823         2.71430
H         36.44004        17.17859        -0.62326
H         36.64183        55.92785         1.83427
H         40.13137        14.94307        -0.18941
H         38.01665        16.16098        -0.29184
H         40.36607        58.12346         1.68465
H         38.24083        56.89056         1.72518
H         42.56233        14.90023        -0.13273
H         42.79213        58.18708         1.31763
H         44.74136        16.06850         0.01083
H         44.92995        57.00487         1.13522
H         48.49427        18.24960         0.75937
H         46.37363        17.01562         0.67491
H         47.81837        55.52305        -2.13277
H         46.00782        56.43229        -0.66999
H         50.14689        19.19974         1.31191
H         50.25367        53.67288        -3.90428
H         52.01277        20.41012         2.30261
H         52.38748        52.58162        -3.35657
H         55.49168        22.92043         3.73859
H         53.48874        21.61148         3.35306
H         56.01044        50.83947        -1.98989
H         53.93649        52.00338        -2.37706
H         56.96441        24.04801         4.31367
H         57.61814        49.85510        -2.01227
H         58.95660        25.40116         4.81208
H         60.31253        27.48140         4.47581
H         60.32533        29.91441         4.08684
H         59.85326        31.91885         4.45082
H         60.15269        34.24134         3.76244
H         60.64748        35.96858         2.55773
H         60.73264        38.30468         1.83300
H         60.69050        40.17530         1.48883
H         60.83158        42.46507         0.71368
H         61.00647        44.10268        -0.93004
H         60.95758        46.53346        -1.46087
H         59.72486        48.60786        -1.88868
