         762
 CSIRO Nanostructure Databank - Neutral Graphene Oxide Data Set
C         23.28800        24.28628        -1.55151
C         22.05534        24.92808        -1.57590
C         23.16607        27.08965        -1.53588
C         21.99332        26.32311        -1.57772
C         23.08887        28.56997        -1.65840
C         21.86165        29.29919        -1.30513
C         23.04430        31.45491        -1.18330
C         21.84049        30.64750        -1.14889
C         22.98680        32.91048        -1.07048
C         21.76996        33.62065        -1.07227
C         22.90794        35.79378        -0.95362
C         21.72861        35.00825        -0.98651
C         22.84045        37.26073        -0.85315
C         21.67764        37.96218        -0.59640
C         22.79179        40.13031        -0.18360
C         21.64986        39.36190        -0.29831
C         22.82662        41.55313         0.15027
C         21.64572        42.24420         0.45376
C         22.80944        44.38543         0.44535
C         21.64308        43.62975         0.61668
C         22.74530        45.86797         0.48473
C         21.67462        46.55199         1.21097
C         22.95473        48.63127         1.25282
C         21.75668        47.88766         1.47604
C         25.90836        22.96934        -1.69260
C         25.77587        24.34373        -1.51316
C         24.48887        25.02430        -1.50800
C         25.64667        27.22901        -1.25126
C         24.43256        26.44934        -1.47973
C         25.63075        28.64547        -1.21340
C         24.39085        29.37513        -1.57767
C         25.51810        31.57527        -1.19326
C         24.27188        30.81329        -1.27624
C         25.45824        33.01170        -0.93177
C         24.19862        33.67458        -0.99440
C         25.42849        35.82414        -1.05408
C         24.14318        35.10281        -0.99650
C         25.40032        37.32248        -0.95758
C         24.08747        38.04550        -0.93729
C         25.29717        40.13333         0.08935
C         24.07519        39.50627        -0.55537
C         25.31053        41.63014        -0.06950
C         24.05541        42.30204         0.07011
C         25.28037        44.47161         0.04828
C         24.04039        43.72871         0.17152
C         25.31539        45.88767         0.15278
C         24.05987        46.65020         0.29894
C         25.40147        48.71465         0.78153
C         24.11599        48.03199         0.80563
C         25.50219        50.07231         1.15769
C         28.21273        22.91169        -0.84584
C         27.09477        22.27356        -1.38254
C         28.28561        24.37227        -0.92913
C         26.98381        25.13690        -1.30995
C         27.96184        27.26359        -0.40893
C         26.86660        26.56739        -0.96742
C         27.90047        28.66124        -0.25269
C         26.77072        29.34486        -0.75976
C         27.95525        31.57060        -0.35530
C         26.81895        30.81692        -0.92567
C         27.90896        33.00291        -0.43053
C         26.69259        33.71331        -0.72893
C         27.97615        35.88328        -0.94979
C         26.68701        35.11328        -0.79800
C         27.87670        37.26293        -0.31101
C         26.58385        37.99799        -0.33601
C         27.79224        40.16329        -0.21032
C         26.59608        39.46674        -0.24806
C         27.78474        41.61303        -0.21029
C         26.52007        42.32605        -0.16309
C         27.71989        44.49368        -0.29884
C         26.51110        43.77057        -0.13660
C         27.75547        45.89922        -0.17152
C         26.54024        46.59972         0.10763
C         27.81259        48.73135         0.25217
C         26.57315        48.02333         0.36383
C         27.87984        50.10640         0.65322
C         26.71365        50.74288         1.12055
C         30.39300        20.04332         0.11650
C         29.27897        20.75944        -0.12723
C         30.39376        22.92849         0.29879
C         29.30651        22.22028        -0.21237
C         30.39536        24.37333         0.36373
C         29.31306        25.07909        -0.15642
C         30.29895        27.26911         0.73255
C         29.10855        26.50274         0.16328
C         30.30303        28.74390         0.66129
C         28.93552        29.42796         0.56418
C         30.12746        31.67575         0.84425
C         29.04240        30.88389         0.16210
C         30.25615        33.06662         0.27564
C         29.11366        33.74756        -0.16815
C         30.35077        35.90176        -0.13912
C         29.17085        35.15614        -0.39646
C         30.34160        37.34932        -0.13735
C         29.11901        38.05669        -0.23069
C         30.28516        40.20754        -0.17096
C         29.06515        39.46206        -0.21197
C         30.25803        41.63361        -0.30687
C         28.99437        42.30464        -0.34821
C         30.27826        44.52352        -0.69980
C         28.95292        43.75184        -0.62732
C         30.24924        45.97955        -0.51047
C         28.99994        46.63460        -0.30340
C         30.19846        48.79474        -0.53659
C         28.99505        48.03671        -0.14703
C         30.19568        50.32093        -0.25060
C         29.13942        50.81677         0.63026
C         30.65383        52.58402         1.40677
C         29.41837        51.90160         1.45603
C         33.09067        18.57725         0.26800
C         32.98889        20.04861         0.38214
C         31.67100        20.77762         0.31405
C         32.74368        22.90599         1.28213
C         31.45642        22.12171         1.03390
C         32.73478        24.37801         1.15261
C         31.57339        25.09687         0.86382
C         32.73263        27.29741         1.14120
C         31.57545        26.54569         0.89779
C         32.74556        28.73618         1.09612
C         31.47175        29.43127         0.90670
C         32.78012        31.62177         0.90489
C         31.46026        30.91936         1.01304
C         32.81409        32.99107         0.29637
C         31.54265        33.74345         0.11196
C         32.78427        35.92984         0.27553
C         31.57536        35.21618         0.06783
C         32.74408        37.34919         0.33656
C         31.54473        38.07270         0.09620
C         32.71566        40.27596         0.08898
C         31.51391        39.51622         0.02937
C         32.71005        41.65318        -0.17257
C         31.48932        42.36804        -0.34703
C         32.72313        44.55051        -0.27134
C         31.52869        43.79744        -0.45394
C         32.70875        45.96762        -0.32879
C         31.48453        46.68328        -0.47299
C         32.72233        48.83446        -0.70642
C         31.50690        48.12555        -0.58876
C         32.77710        50.29607        -0.79311
C         31.47577        51.07395        -0.34825
C         32.88092        53.01200         0.36032
C         31.65711        52.25371         0.49764
C         33.00770        54.28125         0.89609
C         35.45668        18.56998         1.04085
C         34.19955        17.90153         0.62730
C         35.39973        20.06885         1.14643
C         34.12809        20.73491         0.98568
C         35.30799        22.94706         1.02900
C         34.08575        22.16149         1.29608
C         35.27345        24.34457         1.51613
C         33.95455        25.07112         1.61409
C         35.23692        27.32815         1.57143
C         33.95938        26.59454         1.56148
C         35.21035        28.70895         1.51145
C         33.97625        29.43780         1.26585
C         35.23053        31.60239         1.19754
C         34.05941        30.86668         1.05317
C         35.34082        33.02558         0.77844
C         34.09654        33.76784         0.35155
C         35.24346        35.92675         0.67378
C         34.04410        35.23747         0.46307
C         35.25309        37.37404         0.70659
C         33.96077        38.07311         0.71689
C         35.24188        40.25270         0.36443
C         33.94935        39.60819         0.54878
C         35.28732        41.65701        -0.10540
C         33.98088        42.39106        -0.33287
C         35.19030        44.52823        -0.00259
C         33.99563        43.85523        -0.16654
C         35.24792        46.00936         0.33341
C         33.90131        46.80032         0.11626
C         35.19887        48.81280        -0.89164
C         33.99520        48.15641        -0.60172
C         35.25337        50.28382        -0.95768
C         34.07534        50.97830        -0.67938
C         35.27993        53.25819        -0.46154
C         33.99265        52.45250        -0.44906
C         35.37361        54.50909         0.31568
C         34.23085        55.01144         0.88664
C         37.99419        15.88200         0.01175
C         36.86311        16.45515         0.46970
C         38.02077        18.72013         0.48843
C         36.80525        17.88697         0.84100
C         37.93568        20.23520         0.46887
C         36.68022        20.94081         0.88264
C         37.56699        23.25919        -0.01255
C         36.48340        22.37923         0.60657
C         37.76394        24.56646         0.81617
C         36.57084        25.09464         1.55110
C         37.78840        27.34243         1.89967
C         36.49066        26.57909         1.85476
C         37.73789        28.80527         1.85733
C         36.43990        29.46159         1.87813
C         37.70734        31.75065         1.80868
C         36.42769        31.00341         1.80144
C         37.72435        33.11760         1.55563
C         36.50981        33.83706         1.18208
C         37.68049        36.03547         1.21651
C         36.46374        35.21504         1.00214
C         37.72516        37.44744         0.73166
C         36.43669        38.11849         0.70945
C         37.66426        40.28731         0.27898
C         36.40800        39.54870         0.56642
C         37.62457        41.71843         0.80311
C         36.47618        42.46073         0.18728
C         37.72937        44.57882         0.22162
C         36.45793        43.83384         0.13610
C         37.73911        45.93084        -0.17555
C         36.41582        46.54976        -0.48078
C         37.74634        48.40784        -1.40608
C         36.39521        47.91826        -1.05646
C         37.66845        50.58138        -1.66348
C         36.50086        51.06370        -1.12554
C         37.82757        53.27320        -0.87441
C         36.51692        52.54842        -0.92152
C         37.93919        54.54091        -0.08603
C         36.69741        55.17695         0.49861
C         37.96984        57.28887         0.61248
C         36.79035        56.62459         0.73577
C         40.45775        14.64679        -0.93595
C         40.34223        16.02798        -0.94347
C         39.13732        16.67786        -0.41676
C         39.98806        18.82667        -1.23469
C         39.07893        18.04833        -0.31562
C         39.95983        20.35175        -1.09246
C         38.86977        21.03445        -0.36135
C         39.92133        23.10274        -0.99616
C         38.79712        22.41401        -0.41637
C         40.00420        25.10225        -0.10904
C         38.87647        25.40186         0.73803
C         40.23202        27.34446         1.41163
C         39.01743        26.66403         1.44209
C         40.31841        28.73834         1.90576
C         38.96046        29.52523         2.13203
C         40.27063        31.74187         1.83071
C         38.96070        31.03090         2.12576
C         40.20282        33.18077         1.51795
C         38.98336        33.82725         1.52374
C         40.20737        35.93345         0.94944
C         38.95535        35.29923         1.43529
C         40.18850        37.33200         0.44770
C         38.90910        38.09348         0.44533
C         40.24739        40.35236        -0.06503
C         38.93692        39.53628         0.07043
C         40.23448        41.72005         0.60800
C         38.95147        42.46651         0.78989
C         40.19077        44.60589         0.32062
C         38.95605        43.91795         0.48275
C         40.17504        45.98211        -0.02892
C         38.95674        46.65184        -0.29044
C         40.27528        48.70245        -1.30907
C         38.94599        47.99863        -0.89491
C         40.28923        50.27625        -1.39350
C         39.01586        51.16854        -1.55771
C         40.30553        53.18213        -0.97757
C         39.09628        52.54135        -1.07752
C         40.29846        54.67664        -0.94744
C         39.14398        55.36100        -0.31481
C         40.40777        57.50634        -0.05723
C         39.18114        56.67010         0.11080
C         40.64416        58.64882         0.82783
C         42.80116        14.73821        -1.54427
C         41.68630        14.00481        -1.23429
C         42.74382        16.17030        -1.64198
C         41.48879        16.83783        -1.32031
C         42.52768        19.05317        -1.66369
C         41.38498        18.23458        -1.34195
C         42.51563        20.43341        -1.56858
C         41.24591        21.15373        -1.34598
C         42.42251        23.45497        -1.16485
C         41.20866        22.59695        -1.07237
C         42.45821        24.86793        -0.55714
C         41.30020        25.49179         0.15268
C         42.65973        27.39161         0.97927
C         41.43813        26.70576         0.92784
C         42.66152        28.81359         1.17169
C         41.52985        29.51139         1.55436
C         42.67707        31.83662         0.87253
C         41.36225        30.95550         1.12016
C         42.72105        33.17837         1.58534
C         41.46278        33.91120         1.50232
C         42.66085        36.08668         1.55630
C         41.45687        35.28153         1.38455
C         42.70096        37.43402         0.99004
C         41.50281        38.05075         0.40417
C         42.72447        40.27609         0.63700
C         41.51590        39.56388         0.23038
C         42.73156        41.74668         0.73325
C         41.48383        42.51156         0.45821
C         42.76963        44.65129         0.61550
C         41.46272        43.87891         0.44218
C         42.72825        46.03205        -0.02266
C         41.42650        46.78789         0.02535
C         42.75582        48.91032        -0.57816
C         41.43971        48.21513        -0.43591
C         42.77688        50.26832        -0.83062
C         41.53045        51.02049        -1.01480
C         42.79108        53.19018        -0.88115
C         41.52797        52.41873        -0.99584
C         42.84360        54.65052        -1.09702
C         41.59197        55.43045        -1.10134
C         42.98486        57.45655        -0.39177
C         41.66068        56.87344        -0.69467
C         43.02456        58.68576         0.25440
C         41.87190        59.25029         0.87269
C         45.07143        16.28682        -2.51423
C         43.84798        16.91188        -2.08362
C         44.98498        19.17137        -2.36979
C         43.66741        18.38174        -2.40767
C         45.04029        20.49798        -1.68989
C         43.74735        21.24521        -1.74143
C         45.00388        23.32351        -0.96773
C         43.73773        22.72735        -1.40762
C         45.02712        24.79077        -0.77037
C         43.80516        25.35675        -0.09879
C         45.20270        27.39294         0.61720
C         43.90654        26.66102         0.64482
C         45.20237        28.77214         1.18533
C         43.93774        29.54077         0.93484
C         45.24716        31.71302         1.32910
C         43.98423        31.03971         0.92706
C         45.21842        33.12457         1.87417
C         43.91692        33.85527         1.69398
C         45.21021        36.01178         1.32916
C         43.98498        35.32550         1.77140
C         45.16788        37.37260         0.98761
C         43.91282        38.10493         0.87859
C         45.15500        40.19061         0.35667
C         43.91820        39.54287         0.67969
C         45.35451        41.66150         0.71329
C         44.04663        42.46551         0.73602
C         45.31027        44.63164         0.39168
C         44.01781        43.86190         0.12666
C         45.30999        46.05344         0.12051
C         44.02407        46.75117        -0.19737
C         45.37345        48.96404        -0.24613
C         43.98746        48.25737         0.04543
C         45.26626        50.26247        -1.01973
C         44.05605        50.94495        -0.99749
C         45.23961        53.09858        -1.60474
C         44.07747        52.41775        -0.97254
C         45.27555        54.59601        -1.55609
C         44.06420        55.33374        -1.11464
C         45.47369        57.30061        -0.62838
C         44.17009        56.72282        -0.78364
C         46.18514        16.98357        -2.86558
C         47.52751        19.04945        -2.21473
C         46.25812        18.45320        -2.70483
C         47.45329        20.23490        -1.44510
C         46.23351        21.07116        -1.32586
C         47.49079        23.35697        -0.63689
C         46.31038        22.63169        -1.30288
C         47.58392        24.76474        -0.64377
C         46.32058        25.55524        -0.65851
C         47.61210        27.62039         0.07958
C         46.32883        26.86749         0.06686
C         47.71474        28.92483         0.78098
C         46.46408        29.55820         1.22225
C         47.72210        31.68769         1.57712
C         46.44364        31.03687         1.33540
C         47.70213        33.16418         1.69489
C         46.44415        33.89500         1.44365
C         47.66078        36.00795         0.88185
C         46.44568        35.28203         1.21339
C         47.63427        37.36086         0.52035
C         46.34721        38.00886         0.48916
C         48.09064        40.39602        -0.01186
C         46.18390        39.33140        -0.01204
C         47.90620        41.84207         0.14079
C         46.54138        42.47790         0.18748
C         47.76409        44.65872         0.71024
C         46.49729        43.93592         0.53095
C         47.75949        46.19769         0.34671
C         46.48656        46.74043        -0.11320
C         47.75153        48.74060        -1.09015
C         46.40513        48.02557        -0.91183
C         47.74063        50.22184        -1.26453
C         46.52650        50.89567        -1.35239
C         47.79995        53.06394        -2.09966
C         46.49123        52.29599        -1.84701
C         47.81067        54.37391        -1.30002
C         46.66062        55.27165        -1.39682
C         46.64378        56.62127        -0.82826
C         49.97033        18.99854        -1.94834
C         48.78036        18.43960        -2.42447
C         49.92507        20.09849        -1.06566
C         48.63594        20.55925        -0.76264
C         49.94844        23.22595        -0.30625
C         48.65404        22.68987        -0.23429
C         50.02779        24.63592        -0.31384
C         48.82934        25.38428        -0.36245
C         50.15401        27.46460         0.30275
C         48.87584        26.86345        -0.20687
C         50.18699        28.86501         0.81272
C         48.89910        29.59492         0.97560
C         50.23725        31.61687         1.63488
C         48.91269        30.97138         1.45414
C         50.28399        33.15981         1.52819
C         48.99045        33.92166         1.51780
C         50.22365        35.88137         0.41112
C         48.92252        35.22860         0.79710
C         50.23729        37.37773         0.24346
C         48.92478        38.11689         0.24544
C         50.26159        40.23476         1.07638
C         49.02662        39.59403         0.54451
C         50.26946        41.74329         1.15372
C         49.05244        42.53460         0.79320
C         50.26522        44.69854         0.64926
C         49.07767        44.00004         0.66035
C         50.23528        46.07797         0.18942
C         49.05316        46.74276        -0.07563
C         50.31267        48.84850        -0.69612
C         49.05386        48.05743        -0.77476
C         50.27839        50.25195        -1.03144
C         49.01736        50.92711        -1.39221
C         50.30229        53.07849        -1.82933
C         49.04170        52.24946        -1.79565
C         50.12494        54.02928        -0.65313
C         48.92274        54.68867        -0.50165
C         52.33108        20.18694        -0.54503
C         51.12341        20.83858        -0.60114
C         52.50309        23.02547        -0.51707
C         51.14119        22.34449        -0.55630
C         52.58753        24.53120        -0.35634
C         51.34402        25.26439         0.12465
C         52.72201        27.47856         0.05184
C         51.41450        26.76568        -0.10990
C         52.76157        28.99309         0.29056
C         51.46677        29.61351         0.84384
C         52.77779        31.60154         1.73282
C         51.48831        30.90423         1.26061
C         52.81681        33.18894         1.47062
C         51.50637        33.81427         1.04715
C         52.71172        35.90329         0.57512
C         51.50576        35.16472         0.68202
C         52.66729        37.33069         0.64871
C         51.50837        38.07662         0.57129
C         52.82949        40.32885         0.84572
C         51.56825        39.51872         0.94793
C         52.84392        41.70699         0.92931
C         51.58655        42.48576         1.19249
C         52.87937        44.74213         0.78674
C         51.55586        43.99249         0.97544
C         52.79706        45.94632        -0.14146
C         51.50071        46.67707        -0.30965
C         52.77715        48.84759        -0.35790
C         51.49753        48.15116        -0.49917
C         52.76455        50.35144        -0.69352
C         51.49257        50.95916        -1.11506
C         52.77448        52.88017        -1.93819
C         51.56030        52.28236        -1.64072
C         53.58788        20.84187        -0.31004
C         54.98778        22.87043         0.13464
C         53.71228        22.20337        -0.28207
C         55.05231        24.36762         0.32566
C         53.89315        25.21705        -0.08624
C         55.05185        27.17691         0.90643
C         53.93498        26.64966         0.32542
C         54.93802        28.48371         1.62237
C         53.92020        29.42684         1.15246
C         55.28515        31.50780         1.19209
C         54.06464        30.82327         1.28957
C         55.28767        32.98492         0.95311
C         54.00715        33.68947         0.65711
C         55.18615        35.89147         0.99222
C         54.03129        35.19457         0.29681
C         55.01117        37.18208         1.32340
C         53.96323        38.05415         0.76510
C         55.40057        40.31914         0.89789
C         54.10444        39.55932         0.73670
C         55.33494        41.73020         0.63481
C         54.09059        42.45486         0.69964
C         55.28813        44.55540         0.16652
C         54.08594        43.85259         0.48539
C         55.28229        45.97507        -0.15509
C         54.08036        46.68658        -0.27456
C         55.24121        48.81099        -0.69245
C         54.06174        48.10969        -0.48581
C         55.26609        50.24719        -0.88058
C         54.02983        50.97197        -1.10566
C         53.99943        52.20365        -1.73668
C         57.45349        22.91669        -0.05659
C         56.28800        22.22750        -0.12907
C         57.52600        24.32862         0.29499
C         56.36074        25.04043         0.43623
C         57.62701        27.22404         0.48558
C         56.39293        26.44623         0.99353
C         57.68337        28.60011         0.47602
C         56.53678        29.48516         0.15609
C         57.72031        31.55027         0.72891
C         56.51650        30.87274         0.74540
C         57.83212        32.99421         1.01073
C         56.54912        33.74929         1.21152
C         57.75491        35.99491         0.76967
C         56.51431        35.24228         1.27273
C         57.87666        37.48870         0.86412
C         56.87798        38.31337         1.31711
C         57.83317        40.34627         0.40012
C         56.66918        39.68718         0.91461
C         57.77237        41.74417         0.17772
C         56.54429        42.44837         0.35807
C         57.76396        44.55900        -0.08950
C         56.52305        43.85634         0.12844
C         57.74918        45.99018        -0.30077
C         56.53713        46.65358        -0.38962
C         57.77216        48.84282        -0.68639
C         56.51605        48.05035        -0.96172
C         57.71319        50.21697        -0.68731
C         56.48630        50.91245        -0.86084
C         60.02145        24.30740         0.23361
C         58.82007        25.02850         0.33479
C         60.10938        27.11713         0.12611
C         58.86204        26.45494         0.35545
C         60.18627        28.57349         0.11841
C         58.98935        29.29912         0.56657
C         60.20116        31.51235         0.06205
C         59.01027        30.82092         0.59574
C         60.18195        32.96371        -0.08200
C         59.07115        33.72823         0.55745
C         60.21827        35.88833        -0.14396
C         58.95290        35.21082         0.27431
C         60.30072        37.37572        -0.09539
C         59.10246        38.17050         0.39348
C         60.12954        40.27353        -0.48243
C         59.01859        39.61798         0.10416
C         60.12452        41.69422        -0.57960
C         58.96841        42.42763        -0.18371
C         60.31054        44.53188        -0.17370
C         58.96685        43.85325        -0.19067
C         60.25146        46.01510        -0.42917
C         59.02383        46.70211        -0.48062
C         60.26436        48.79805        -0.71074
C         59.03547        48.11800        -0.62323
C         61.24274        24.96367         0.07262
C         61.28353        26.35049        -0.01981
C         61.31016        29.31322        -0.20189
C         61.30557        30.73637        -0.25493
C         61.20113        33.68376        -0.65850
C         61.23749        35.12047        -0.63223
C         61.24598        38.11715        -0.94746
C         61.19945        39.46935        -1.04552
C         61.22882        42.44557        -1.15507
C         61.29407        43.79055        -1.04943
C         61.46439        46.71929        -0.50136
C         61.47173        48.10396        -0.65105
O         28.05998        24.90194        -2.27636
O         35.60823        46.05692         1.69184
O         39.75262        28.95019         3.21858
O         34.76423        41.86723        -1.46588
O         41.78135        38.64881        -0.89866
O         42.32081        24.66657        -1.98416
O         47.25424        42.36296        -1.07669
O         36.20421        18.01661         2.16455
O         41.20908        47.89550         0.97663
O         36.19901        30.31058         3.06479
O         43.91840        43.62060        -1.28843
O         49.30017        42.13144         2.18325
O         36.10463        46.70925        -1.89398
O         51.82789        22.77908        -1.79435
O         52.07432        45.83345        -1.40504
O         45.87192        28.92368         2.46386
O         23.10825        46.46836        -0.79997
O         54.66083        32.97350        -0.42721
O         26.47967        31.23264        -2.27810
O         29.81574        49.79105        -1.54148
O         49.43253        35.15576        -0.58068
O         52.77413        49.86393         0.69205
O         29.55106        44.09517        -1.91349
O         36.22626        20.60180         2.21389
O         56.55197        34.47182         2.49640
O         35.03398        33.25219        -0.65232
O         38.08614        39.94453        -1.06892
O         52.88666        31.39138         3.07783
O         31.94468        51.07736        -1.70955
O         39.72082        41.94750         1.95672
O         52.11095        27.21466        -1.28071
O         48.51437        48.05120        -2.15419
O         43.96468        25.34972         1.34971
O         47.72693        45.70752         1.70959
O         48.25176        27.64171        -1.26328
O         60.25393        37.86495         1.29199
O         32.10818        31.48977         2.21502
O         40.78316        57.74171        -1.45543
O         24.13536        39.12103        -1.95199
O         43.29148        35.97166         2.88257
O         48.37674        33.86621         2.82498
O         29.23672        26.74658         1.60764
O         38.28303        35.93569         2.57057
O         40.23534        20.90659        -2.41293
O         33.77613        38.97507         1.85985
O         49.60448        37.80464        -1.01369
O         54.80275        23.47439         1.47080
O         39.70535        24.44697        -1.30696
O         45.93754        55.18284        -2.68542
O         50.18446        27.67401         1.75485
O         38.59736        19.52552         1.57282
O         39.85843        50.79583        -2.68944
O         50.86633        39.65094         2.26650
O         58.88125        33.36434         1.95612
O         55.74953        29.17475        -0.73530
O         45.51652        52.52021        -2.91963
O         45.92313        49.44476         0.94927
O         50.43637        32.45244         2.79446
O         45.55540        25.57517        -1.90982
O         25.61261        36.72945        -2.27216
O         43.36224        42.27831         1.99199
O         32.26772        33.03884        -1.05549
O         37.12171        26.86160         3.14114
O         37.70604        49.39777        -2.38824
O         40.16885        36.19958        -0.50395
O         55.91791        37.79038         2.18535
O         40.72112        55.19826        -2.25934
O         37.03196        53.30042        -2.09810
O         33.37035        22.51303         2.55034
O         43.63960        52.91140         0.32848
O         39.84166        31.51338         3.19773
O         55.71661        28.76121         2.55258
O         23.77802        29.03225        -2.86255
O         47.17033        39.80580        -0.87080
O         44.08994        30.25545        -0.32569
O         43.76116        22.23184        -2.83710
O         27.04849        37.30848         0.90165
O         51.60291        43.39916         2.32587
O         59.22640        30.02747         1.82376
O         48.51112        21.42270         0.31918
O         57.88003        35.58219        -0.66479
O         36.10315        24.36022         2.73352
O         45.57432        19.26129        -3.73073
O         37.60892        54.35961         1.33590
O         34.32601        53.31780        -1.57681
O         53.38095        25.05539        -1.45228
O         32.52622        20.78580        -0.86356
O         33.77766        25.84177         2.82818
O         42.57236        32.37736        -0.42658
O         54.26096        38.73746        -0.50627
O         30.88893        21.79884         2.32666
H         31.60016        21.91090         2.99999
O         28.22784        36.07225        -2.37373
H         27.37714        36.36465        -2.78515
O         43.32612        46.19643        -1.36352
H         43.83205        44.50073        -1.73789
O         51.38119        25.07910         1.57023
H         50.81405        25.76072         1.99920
O         43.76545        48.38583         1.46255
H         44.53440        48.94574         1.78573
O         42.96240        44.88075         2.02745
H         42.28626        45.51611         2.34383
O         60.81933        44.39635         1.20119
H         60.86407        43.43743         1.40385
O         54.18679        35.32635        -1.13182
H         54.56147        34.47954        -1.47300
O         56.53082        47.83943        -2.43204
H         56.52979        48.72669        -2.85129
O         53.19173        45.35948         2.06657
H         52.92883        44.71610         2.76625
O         25.08514        39.86924         1.52486
H         25.92461        40.05538         1.99663
O         52.93615        29.63936        -0.99693
H         52.66873        28.99823        -1.69499
O         47.84179        53.40376        -3.50657
H         46.94814        53.75958        -3.73875
O         45.90127        47.71688        -2.22551
H         46.67069        47.46222        -2.78364
O         46.53971        22.91112        -2.72303
H         45.68276        22.75884        -3.19214
O         28.38850        29.43929         1.92036
H         28.79590        30.20967         2.39159
O         45.37809        32.95762         3.32647
H         45.37348        33.84652         3.74214
O         29.62000        31.87417         2.22574
H         30.41269        32.04311         2.79085
O         53.06933        33.79676         2.75590
H         52.98606        33.04255         3.41660
O         40.37315        40.74379        -1.45110
H         40.54188        39.93008        -1.97707
O         37.22207        41.57062         2.19873
H         38.02825        41.67370         2.75545
O         40.78486        30.74334        -0.19854
H         41.36403        31.30577        -0.80854
O         33.47031        47.20464         1.44814
H         34.20947        46.85847         2.04705
O         50.43658        53.84675        -3.04210
H         49.54490        53.92914        -3.46148
O         40.60030        48.24659        -2.63266
H         40.06561        48.77401        -3.26823
O         45.76285        41.51525         2.11058
H         44.94588        41.60524         2.66244
O         37.00619        23.71958        -1.27850
H         37.73704        24.15835        -1.77399
O         39.38948        18.55157        -2.54826
H         39.81181        19.18039        -3.18088
O         43.19177        18.37934        -3.78698
H         43.96929        18.62154        -4.34880
O         56.71107        26.28869         2.40154
H         56.58273        27.17959         2.82222
H         23.31648        23.18895        -1.55959
H         21.12900        24.33904        -1.61098
H         21.01307        26.81478        -1.63296
H         20.93727        28.72978        -1.13294
H         20.88523        31.13353        -0.90788
H         20.81813        33.07735        -1.14123
H         20.74705        35.50077        -0.97896
H         20.71603        37.43101        -0.55594
H         20.66533        39.80333        -0.08738
H         20.69549        41.70062         0.54123
H         20.68996        44.13285         0.82747
H         20.81045        45.97710         1.57155
H         22.95865        49.68194         1.57185
H         20.91915        48.39497         1.97525
H         25.03428        22.36869        -1.97859
H         24.60983        50.62037         1.48594
H         27.07082        21.17842        -1.45865
H         26.75339        51.79914         1.41909
H         30.37099        18.94454         0.12022
H         28.32831        20.23801        -0.30244
H         30.80193        53.42770         2.09429
H         28.66357        52.24600         2.17625
H         32.21162        18.02202        -0.08813
H         32.15140        54.73868         1.41013
H         34.19727        16.80343         0.57950
H         34.25871        55.96919         1.42483
H         38.00530        14.79548        -0.14143
H         36.00610        15.82670         0.74816
H         37.98703        58.37089         0.80469
H         35.87666        57.18639         0.97611
H         39.60645        14.01113        -0.66193
H         39.83259        59.01161         1.47375
H         43.74134        14.21182        -1.75142
H         41.74024        12.90837        -1.19338
H         43.98511        59.18664         0.43324
H         42.01076        60.14430         1.49704
H         45.11749        15.19010        -2.56932
H         45.54327        58.33285        -0.26005
H         47.08494        16.43938        -3.18554
H         47.59883        57.09587        -0.56455
H         50.93269        18.56322        -2.25056
H         48.83813        17.53994        -3.05238
H         50.95934        54.22187         0.03732
H         48.84134        55.50956         0.22891
H         52.34918        19.09252        -0.65106
H         52.77558        53.88209        -2.38714
H         54.46878        20.20533        -0.14464
H         54.93148        52.67957        -2.07172
H         58.38353        22.38448        -0.29869
H         56.30012        21.18275        -0.47223
H         58.62527        50.81758        -0.56867
H         56.51490        52.00802        -0.93141
H         60.01594        23.21067         0.27530
H         60.28649        49.88902        -0.83241
H         62.17099        24.38107        -0.00245
H         62.24991        26.85008        -0.16877
H         62.24106        28.80528        -0.49009
H         62.22849        31.22670        -0.59544
H         62.05666        33.16517        -1.11239
H         62.14988        35.60193        -1.01139
H         62.00983        37.56177        -1.51011
H         61.95974        39.97231        -1.65898
H         62.00893        41.90865        -1.71298
H         62.13390        44.33787        -1.50164
H         62.41464        46.17450        -0.41800
H         62.42321        48.64938        -0.71266
