         320
 CSIRO Nanostructure Databank - Neutral Graphene Oxide Data Set
C         30.07051        31.59299        -0.09174
C         30.46951        32.80131        -0.04934
C         30.29514        36.13031         0.07250
C         30.36553        37.36146         0.20891
C         30.36894        40.55639         0.60107
C         30.49508        41.82006         0.65219
C         32.58531        29.34359        -0.29515
C         31.39983        29.62063        -0.19363
C         32.99836        31.91615        -1.04579
C         30.09047        30.22532        -0.05893
C         32.78528        33.03793        -0.00527
C         31.44080        33.75690        -0.09123
C         32.69278        36.00688        -0.11448
C         31.42526        35.18802         0.42045
C         32.68400        37.51759         0.17351
C         31.51809        38.24266         0.18467
C         32.77728        40.37267         0.70625
C         31.52713        39.74693         0.00788
C         32.86980        41.83133         1.06759
C         31.58795        42.65430         0.87365
C         32.94796        44.50711         1.42507
C         31.85500        44.02815         1.05699
C         35.48850        27.49565        -0.69433
C         35.08145        28.77012        -0.01713
C         33.99700        29.55824        -0.78503
C         35.28348        31.65203        -0.16101
C         34.16298        31.05909        -0.66119
C         35.31950        33.13660        -0.08657
C         34.02769        33.89115        -0.09315
C         35.29311        36.01961        -0.12300
C         34.01147        35.33962         0.38318
C         35.27830        37.51387        -0.12419
C         33.94115        38.29670        -0.20661
C         35.30443        40.44457         0.10053
C         34.09115        39.58861         0.63005
C         35.36765        41.88321         0.59165
C         34.20595        42.48471         1.15586
C         35.31740        44.68415         0.67484
C         34.33337        43.96220         1.58873
C         35.61997        46.11591         1.04414
C         37.51599        26.49282         0.22757
C         36.36471        26.63671        -0.61196
C         37.67037        28.81001         0.63359
C         36.43518        29.51352         0.21080
C         37.76517        31.57726         0.41400
C         36.46994        30.88135         0.15405
C         37.80620        33.07073         0.55735
C         36.48626        33.85122         0.58921
C         37.80814        36.00706         0.54999
C         36.63139        35.23503        -0.06777
C         37.81507        37.43838        -0.01587
C         36.56204        38.20837         0.28883
C         37.86824        40.40356         0.03471
C         36.62933        39.71321         0.37392
C         37.73772        41.84025        -0.39078
C         36.57606        42.54073         0.31238
C         37.78740        44.76355        -0.21762
C         36.74753        44.00931         0.66773
C         37.74078        46.31670        -0.11966
C         36.64237        46.74023         0.75046
C         40.48171        24.63853        -0.99869
C         39.27079        24.88372        -0.66196
C         40.45975        27.18896         0.89520
C         38.69006        25.79904         0.26312
C         40.28789        28.71581         0.98425
C         38.93025        29.36028         0.57371
C         40.28395        31.60929         0.36895
C         39.00138        30.78823        -0.00733
C         40.25390        33.04035        -0.26210
C         39.05602        33.83438         0.25712
C         40.30597        35.90050        -0.17422
C         39.07034        35.19519         0.26033
C         40.32889        37.37946        -0.44093
C         39.06293        38.18462        -0.27568
C         40.22517        40.31289        -0.90818
C         39.22248        39.68373         0.07867
C         40.29739        41.84200        -0.74551
C         39.08372        42.57428        -0.13053
C         40.30001        44.54719        -1.05838
C         39.00414        44.01151        -0.57553
C         40.18757        46.60147         0.33034
C         38.95916        47.16016        -0.40771
C         40.19454        49.16407        -0.28651
C         39.10132        48.63308        -0.03517
C         42.80775        24.72062        -0.99172
C         41.67430        24.18895        -1.47557
C         42.93476        27.15238         0.35610
C         41.64645        26.53676         0.72721
C         42.86420        28.66213         0.33039
C         41.44268        29.32258         0.11073
C         42.73714        31.51074        -0.13885
C         41.56697        30.85154         0.08507
C         42.78419        32.99404        -0.52575
C         41.56945        33.73629        -0.03748
C         42.74997        35.88366        -0.68827
C         41.63074        35.22975         0.15710
C         42.79291        37.40545        -0.50767
C         41.62973        38.11200        -0.51525
C         42.86187        40.29156        -0.40527
C         41.65398        39.57199        -0.99700
C         42.63818        41.66758         0.20857
C         41.61314        42.52995        -0.55129
C         42.61808        44.72591         0.11405
C         41.54645        44.00686        -0.32641
C         42.64098        46.23710         0.46854
C         41.42906        47.06114         0.02404
C         42.80002        49.04944        -0.08159
C         41.51216        48.52987        -0.63770
C         43.97780        25.11456        -0.57842
C         45.24954        26.64380         0.99746
C         44.12931        26.20601         0.34832
C         45.19663        28.96852         1.34403
C         43.88117        29.61656         0.99202
C         45.35816        31.53002         0.03496
C         44.04054        30.81709         0.07999
C         45.39046        32.98919        -0.43632
C         44.07180        33.70364        -0.03485
C         45.34285        35.92463        -0.29611
C         44.08468        35.16457        -0.49907
C         45.24607        37.38838         0.12592
C         44.12878        38.13280        -0.67560
C         45.21359        40.22579         0.43390
C         44.00902        39.58506        -0.23707
C         45.22745        41.73126         0.05917
C         43.95805        42.48520         0.57195
C         45.20165        44.72667         0.66144
C         43.97210        43.98407         0.07002
C         45.20084        46.31099         0.60642
C         43.98730        46.88586        -0.08904
C         43.79634        48.35274         0.10128
C         47.53034        27.40542         1.13346
C         46.67532        26.55746         0.86040
C         47.70336        28.82163         1.45151
C         46.41417        29.56880         1.24681
C         47.77992        31.72899         0.81258
C         46.42222        31.08473         1.04343
C         47.80986        33.05020         0.44301
C         46.58964        33.78078         0.09826
C         47.81096        35.94938        -0.09441
C         46.56958        35.15529         0.05052
C         47.76518        37.42594        -0.07370
C         46.58782        38.10959         0.05204
C         47.74161        40.28419         0.07122
C         46.56861        39.57788         0.10087
C         47.76749        41.79884        -0.07306
C         46.52698        42.39105         0.63947
C         47.81059        44.62315         0.36769
C         46.49960        43.93911         0.67399
C         47.56968        46.00951         0.13976
C         46.52809        46.66032        -0.04887
C         50.30498        28.91533         1.12487
C         49.00670        29.53553         1.43369
C         50.22169        31.57554         0.41558
C         49.08184        31.08574         1.32676
C         50.33588        33.07286         0.29993
C         49.08355        33.85336         0.69178
C         50.41140        35.95946         0.20924
C         49.10280        35.22600         0.03900
C         50.35261        37.43667        -0.16353
C         49.04743        38.18067        -0.41394
C         50.30027        40.34792        -0.16642
C         49.07228        39.55636         0.27128
C         50.26918        41.72056        -0.24861
C         49.08632        42.41613         0.43875
C         50.23115        44.41496        -0.25399
C         48.99287        43.94461         0.21680
C         51.37286        29.44032         0.78225
C         52.62787        31.55125        -0.14358
C         51.90882        30.80141         0.89364
C         52.57351        32.77471        -0.39399
C         51.45100        33.68552        -0.21177
C         52.76379        35.95852        -0.31423
C         51.49097        35.14322        -0.60207
C         52.65602        37.19653        -0.31617
C         51.53558        38.11245        -0.28906
C         52.40047        40.34454        -1.33654
C         51.65764        39.60039        -0.23959
C         52.40387        41.60378        -1.32836
C         51.39097        42.47398        -0.85458
C         51.27012        43.87469        -0.72707
O         37.85811        32.18364         1.73672
O         44.92929        35.51451        -1.65090
O         36.65004        38.84637         1.57716
O         39.46781        26.27257         1.38832
O         40.16556        36.40293        -1.55245
O         43.15484        27.94924        -0.89497
O         32.53420        40.78751         2.07825
O         34.06257        29.20016        -2.16163
O         48.56192        35.37163        -1.28634
O         48.41071        29.12795         2.70118
O         44.98528        27.69856         1.91994
O         35.32977        36.74730        -1.37658
O         37.20566        45.63157        -1.29315
O         45.81333        44.35199         1.91980
O         37.45900        27.53437         1.21206
O         34.79034        33.73472        -1.32648
O         41.05248        42.30491        -1.90890
O         40.48773        45.21359        -2.07031
O         41.96707        41.33114         1.40835
O         44.99440        30.58238        -0.99697
O         39.96420        45.65657         1.27655
H         40.80115        45.51154         1.78130
O         32.32318        31.71937        -2.03592
H         33.41830        29.75723        -2.65256
O         32.63982        35.87734        -1.53881
H         33.24731        36.55087        -1.93116
O         40.99776        28.98805        -1.23295
H         41.78151        28.62823        -1.72494
O         45.92345        31.66199         2.30169
H         46.65071        31.66602         2.96028
O         40.52339        29.07649         2.37169
H         39.83262        28.64090         2.91569
O         34.76602        44.66413        -0.61731
H         35.38986        45.13360        -1.22317
O         40.08282        32.95328        -1.70879
H         39.48540        32.18639        -1.91467
O         39.34567        42.48999         1.28968
H         38.67930        43.04370         1.77345
O         49.07368        34.13121         2.10558
H         49.26601        33.29547         2.59543
O         42.80577        33.03739        -1.97511
H         41.86530        33.03022        -2.28169
O         43.26702        30.07527         2.21779
H         43.31590        29.35475         2.88079
O         37.65297        36.21662         1.95051
H         37.07037        35.50503         2.32161
O         47.77796        42.12983        -1.46986
H         46.95391        41.74906        -1.86893
O         40.31431        31.82623         1.79058
H         40.49726        30.96400         2.23709
O         41.75683        25.26213         1.20681
H         40.87297        25.02402         1.57588
O         46.65197        41.99187         2.01897
H         45.95290        42.50445         2.50296
O         48.99371        38.41790        -1.84049
H         48.91140        37.54456        -2.28354
O         50.77898        35.90637         1.59264
H         51.62639        36.38888         1.70298
O         49.34653        31.53273         2.67811
H         48.92301        30.88345         3.28900
O         41.96395        39.45539        -2.41826
H         41.40648        38.74124        -2.79579
O         49.19163        39.32742         1.69393
H         49.12402        40.20879         2.13425
O         44.82569        37.31433         1.50393
H         44.81890        38.23896         1.87335
O         36.14691        34.02262         1.97826
H         36.51630        33.24572         2.46426
O         44.03197        33.75782         1.41349
H         44.52364        32.99400         1.80306
O         32.86859        32.40221         1.30528
H         32.06221        31.85539         1.42777
O         51.21555        35.22962        -1.98310
H         51.84391        34.65936        -2.47173
O         39.60409        40.12639        -2.21379
H         40.18425        40.62139        -2.84265
O         44.02071        42.53698         1.99261
H         43.20134        42.02950         2.29164
O         28.98983        29.45466         0.06420
H         29.22707        28.50816         0.02079
O         38.90837        30.63410        -1.44696
H         39.62430        29.99251        -1.70841
O         45.21083        46.80399         1.92161
H         45.75022        46.18385         2.46676
O         39.80458        39.66060         1.38347
H         40.51515        40.37924         1.46553
O         41.64858        48.41314        -2.02784
H         40.82181        47.98318        -2.36287
O         34.56504        28.43552         1.26470
H         35.23726        27.89414         1.73384
O         44.47695        38.10962        -2.07479
H         43.82679        38.69245        -2.53512
O         42.66370        46.24960         1.91249
H         42.94318        47.14435         2.20851
O         42.42196        35.70100        -2.08088
H         43.26189        35.81987        -2.58210
O         45.25706        41.65974        -1.37972
H         44.90689        42.49961        -1.76764
O         49.97482        31.02857        -0.85589
H         50.59331        31.42310        -1.50629
O         37.07117        35.02724        -1.42682
H         36.28690        34.74135        -1.95484
O         44.24705        43.99567        -1.36175
H         44.15208        44.93127        -1.69225
O         49.22920        42.17376         1.85096
H         50.00738        42.66971         2.17996
O         45.03019        39.99354         1.84872
H         45.73583        40.51190         2.31363
O         35.18760        40.55939        -1.33988
H         35.92325        41.14913        -1.67509
O         34.77059        44.06176         2.94656
H         34.13498        43.58704         3.52182
O         37.29914        44.11897         2.00598
H         36.57151        43.96161         2.65812
O         31.47911        35.12282         1.85141
H         30.71538        34.59946         2.17227
O         38.14567        37.75785        -1.46005
H         38.64336        36.96226        -1.86301
O         39.17314        47.15574        -1.81093
H         38.50031        46.56637        -2.23043
O         44.05534        46.65930        -1.49474
H         43.34709        47.19909        -1.92654
O         41.87377        35.53834         1.55153
H         42.63941        34.99190         1.85580
O         37.48139        41.88648        -1.84835
H         38.17846        41.32178        -2.27329
O         45.55100        32.93657        -1.85318
H         45.45063        33.85300        -2.20624
O         33.68608        38.53600        -1.60252
H         34.31652        39.22082        -1.94021
O         52.35174        39.86005         0.98480
H         52.56169        40.81598         1.03580
O         34.09573        35.45179         1.80338
H         33.23026        35.18877         2.19963
O         31.58508        40.04174        -1.37510
H         31.07837        39.36916        -1.87508
O         34.33828        39.11097         1.95255
H         33.93694        39.74922         2.58846
O         52.35112        31.10178         2.15097
H         51.99694        30.46603         2.80353
