         410
 CSIRO Nanostructure Databank - Neutral Graphene Oxide Data Set
C         27.82524        27.36493        -0.68848
C         27.82096        28.79045        -0.58484
C         26.59616        29.51928        -0.36675
C         27.84493        31.53153         0.46241
C         26.58789        30.80263         0.07172
C         27.82849        33.03535         0.12072
C         26.63000        33.76690         0.13738
C         27.81302        35.89993        -0.03431
C         26.62685        35.16709         0.06222
C         27.83886        37.36464        -0.10746
C         26.65919        38.11622        -0.33325
C         27.86523        40.22671        -0.07808
C         26.67333        39.50131        -0.30627
C         27.87026        41.68174         0.01614
C         26.67631        42.44622        -0.11772
C         27.89328        44.51626         0.29760
C         26.68231        43.81347         0.05617
C         27.91116        45.93614         0.41493
C         30.28485        27.27849        -0.95372
C         28.98110        26.63197        -0.73725
C         30.30473        28.80619        -0.87127
C         29.04853        29.50494        -0.52108
C         30.35704        31.49789         0.07448
C         29.08108        30.81792        -0.05075
C         30.31970        33.03589         0.08970
C         29.03826        33.74465        -0.01658
C         30.27569        35.89765        -0.04293
C         29.05729        35.18380        -0.08085
C         30.29914        37.30925         0.46562
C         29.04911        38.06303         0.06765
C         30.32434        40.16234         0.30792
C         29.07700        39.48378         0.07508
C         30.28926        41.59460         0.58418
C         29.07090        42.36700         0.31188
C         30.36083        44.51649         0.45617
C         29.11338        43.78819         0.39300
C         30.35026        45.94193         0.50164
C         29.09787        46.62185         0.53442
C         32.76898        24.56993        -0.03593
C         31.57721        25.22600        -0.32789
C         32.80028        27.29725        -0.72288
C         31.56926        26.58572        -0.66829
C         32.81903        28.75183        -0.83812
C         31.60125        29.47457        -0.64554
C         32.83757        31.56639        -0.38977
C         31.61347        30.83768        -0.34395
C         32.83106        33.00053        -0.33230
C         31.54232        33.70353        -0.39517
C         32.81112        35.92648        -0.24073
C         31.52108        35.24372        -0.40089
C         32.79646        37.34912        -0.01410
C         31.58482        38.04851         0.16103
C         32.81481        40.20333         0.24901
C         31.56423        39.47169         0.27485
C         32.85368        41.62600         0.29048
C         31.64017        42.37986         0.58823
C         32.80902        44.53377         0.11753
C         31.60388        43.82930         0.36680
C         32.78806        45.95942         0.14312
C         31.60062        46.66129         0.44928
C         32.87127        48.77189         0.61379
C         31.68006        48.07729         0.66370
C         35.36227        23.11698         0.21873
C         35.25034        24.57301         0.31537
C         33.99380        25.25073        -0.10375
C         35.31561        27.27762        -0.75617
C         34.01731        26.61709        -0.44012
C         35.29509        28.71873        -1.22501
C         34.03764        29.46236        -0.92031
C         35.26302        31.61559        -0.82301
C         34.04336        30.86573        -0.68835
C         35.23912        33.04413        -0.69648
C         34.00975        33.74781        -0.47947
C         35.25762        35.92170        -0.39311
C         34.00490        35.20261        -0.37633
C         35.27791        37.34223        -0.19563
C         34.04774        38.06492         0.00332
C         35.28724        40.21318         0.29103
C         34.02854        39.46903         0.14956
C         35.29918        41.66586         0.08263
C         34.06194        42.36452         0.09298
C         35.29323        44.48571        -0.05349
C         34.05737        43.80107         0.01354
C         35.34005        45.94657        -0.24010
C         34.01094        46.73143        -0.13803
C         35.34566        48.82444         0.20833
C         34.09139        48.15232         0.22536
C         35.42032        50.27026         0.34866
C         37.78619        23.19617         0.60534
C         36.54849        22.48210         0.40725
C         37.81964        24.58634         0.41629
C         36.57228        25.35413         0.29299
C         37.82796        27.37790        -0.44811
C         36.60531        26.69614        -0.31915
C         37.89430        28.75497        -0.92831
C         36.61689        29.46251        -1.53283
C         37.50557        31.79687        -1.58671
C         36.45414        30.95804        -1.23302
C         37.62365        33.12844        -1.16575
C         36.44296        33.80097        -0.80381
C         37.70994        35.93871        -0.81275
C         36.46240        35.22989        -0.63792
C         37.71563        37.37802        -0.65367
C         36.52371        38.02495        -0.26469
C         37.79282        40.22034        -0.25390
C         36.59629        39.44587         0.09163
C         37.75432        41.61018        -0.18607
C         36.53198        42.34671        -0.01343
C         37.74807        44.52319         0.05928
C         36.52818        43.78795        -0.01137
C         37.78672        45.92295         0.16136
C         36.58068        46.68444         0.02786
C         37.86416        48.78256         0.37856
C         36.56833        48.09169         0.10523
C         37.86719        50.25354         0.75321
C         36.57584        50.94740         0.56378
C         40.30412        20.42103         1.19809
C         39.10903        21.10451         0.88220
C         40.12884        23.33070         1.47027
C         39.00836        22.48632         0.90663
C         40.26184        24.67107         0.76183
C         39.06302        25.31710         0.36172
C         40.30989        27.36308        -0.05061
C         39.05936        26.68500        -0.05448
C         40.34168        28.74299        -0.38503
C         39.15866        29.36844        -0.93117
C         40.33781        31.55199        -0.84913
C         39.40083        30.72485        -1.39215
C         40.23544        33.03607        -0.75693
C         38.93001        33.77904        -0.91072
C         40.19262        35.97156        -0.97769
C         38.91000        35.24749        -0.99699
C         40.13384        37.42525        -1.30942
C         38.92785        38.12679        -0.82446
C         40.27139        40.19904        -0.60056
C         38.98710        39.51387        -0.63003
C         40.29565        41.59209        -0.24920
C         39.02160        42.33543        -0.35615
C         40.26571        44.42939         0.44829
C         39.02666        43.80567        -0.13785
C         40.28502        45.89932         0.15381
C         39.07474        46.60846         0.15093
C         40.28796        48.62142        -0.40176
C         39.09766        48.02830         0.00663
C         40.30426        50.81084         0.25097
C         39.12279        51.08106         0.93026
C         40.40198        52.57152         2.39722
C         39.19576        52.01827         1.99996
C         42.71615        20.43241         1.66421
C         41.47538        21.10449         1.52603
C         42.77790        23.29084         1.43968
C         41.45459        22.57916         1.63725
C         42.76110        24.69200         0.96271
C         41.50923        25.34829         0.70924
C         42.77561        27.43252         0.28187
C         41.53530        26.71690         0.30411
C         42.76851        28.84966         0.10867
C         41.53399        29.47811        -0.16938
C         42.75572        31.74473        -0.11616
C         41.46860        30.94260        -0.15119
C         42.73169        33.14033        -0.61398
C         41.52834        33.76456        -0.84317
C         42.76837        35.90776        -1.35221
C         41.49547        35.24003        -0.93914
C         42.75805        37.40390        -1.50236
C         41.45090        38.16498        -1.42527
C         42.75419        40.10081        -0.50907
C         41.46380        39.52207        -0.87735
C         42.76803        41.56655        -0.09400
C         41.49356        42.29897        -0.10024
C         42.75592        44.40910         0.08124
C         41.53502        43.71421         0.06759
C         42.76974        45.85329         0.11196
C         41.52834        46.55877         0.01536
C         42.79321        48.60210        -0.43064
C         41.53898        47.93780        -0.33747
C         42.80128        50.74838         0.18547
C         41.57826        51.27930         0.68770
C         42.91367        52.52818         2.31652
C         41.63071        52.16335         1.80494
C         43.93144        21.10306         1.60944
C         45.24804        23.15253         1.08330
C         44.01822        22.48981         1.35057
C         45.21934        24.55595         0.62783
C         43.97099        25.34066         0.69886
C         45.26200        27.47081         0.40611
C         44.01553        26.74514         0.43772
C         45.25344        28.91100         0.29272
C         44.00465        29.60286         0.14082
C         45.23083        31.73619        -0.15984
C         44.01959        31.00281        -0.06459
C         45.22508        33.14817        -0.44475
C         44.00183        33.85037        -0.69313
C         45.25665        35.94246        -1.08726
C         44.03313        35.21639        -1.01954
C         45.26154        37.37226        -1.24032
C         44.03187        38.11043        -1.24965
C         45.23848        40.22168        -0.89103
C         44.02349        39.47138        -0.94209
C         45.20370        41.61418        -0.61678
C         44.02091        42.31278        -0.25896
C         45.24060        44.44364         0.04302
C         44.00217        43.71428        -0.08940
C         45.23280        45.87069         0.25727
C         43.98945        46.57512         0.14860
C         45.21961        48.76588         0.23261
C         43.99389        48.00936         0.00295
C         45.23030        50.17746         0.45344
C         44.03665        50.96837         0.79382
C         44.06990        51.94050         1.84338
C         47.70434        23.24576         1.17973
C         46.50248        22.52847         1.20551
C         47.76041        24.63070         0.97452
C         46.54208        25.32620         0.53332
C         47.74007        27.50856         0.56171
C         46.50289        26.80225         0.53025
C         47.73322        28.96294         0.48278
C         46.46288        29.64641         0.33161
C         47.66474        31.82539         0.15224
C         46.46288        31.06873         0.11391
C         47.68548        33.17738        -0.24314
C         46.45568        33.85386        -0.53822
C         47.72581        35.95375        -0.93485
C         46.48177        35.24867        -0.85180
C         47.71561        37.34889        -1.18769
C         46.49602        38.08032        -1.22525
C         47.70001        40.23298        -1.10290
C         46.49379        39.53388        -1.14600
C         47.74587        41.69015        -0.96128
C         46.42146        42.41917        -0.75629
C         47.71059        44.33758         0.23939
C         46.43972        43.75381        -0.15656
C         47.70317        45.84795         0.57767
C         46.44181        46.60448         0.39389
C         47.70390        48.74087         0.68173
C         46.43780        48.01954         0.41445
C         47.68332        50.19861         0.52171
C         46.49241        50.85884         0.51091
C         50.18485        24.80791         1.53351
C         48.96651        25.39962         1.10782
C         50.23860        27.47222         0.64397
C         48.94992        26.78724         0.76237
C         50.19617        29.02093         0.57551
C         48.90731        29.70378         0.60572
C         50.17173        31.88893         0.33632
C         48.88447        31.21556         0.79227
C         50.16692        33.15083        -0.21242
C         48.93288        33.88538        -0.40399
C         50.24306        35.93926        -0.95603
C         48.97011        35.24131        -0.77381
C         50.26910        37.33426        -1.20811
C         48.98954        38.04120        -1.42217
C         50.24118        40.26521        -1.09110
C         48.98193        39.57326        -1.36690
C         50.23740        41.61271        -0.67725
C         48.99950        42.33896        -0.53652
C         50.20744        44.36587         0.16654
C         48.98960        43.66815        -0.08883
C         50.18613        45.77589         0.43334
C         49.00595        46.51048         0.48311
C         50.29815        48.63453         0.22155
C         49.03450        47.97720         0.64662
C         51.38218        25.51626         1.58484
C         52.70517        27.58920         1.13154
C         51.47022        26.84193         1.13311
C         52.69139        28.98968         1.06026
C         51.42801        29.72160         1.00667
C         52.72490        31.82982         0.39417
C         51.43913        31.24921         0.74416
C         52.72426        33.05918        -0.40537
C         51.42311        33.77084        -0.70577
C         52.70614        35.87795        -1.24331
C         51.47282        35.23153        -0.96050
C         52.71807        37.31403        -1.38696
C         51.49058        38.02892        -1.33553
C         52.73853        40.19119        -0.97767
C         51.50018        39.54887        -1.54594
C         52.76304        41.69771        -0.85779
C         51.45702        42.33010        -0.42595
C         52.71547        44.37628         0.20426
C         51.44891        43.66275        -0.01015
C         52.73374        45.75936         0.49584
C         51.46114        46.52141         0.78161
C         51.43366        47.92062         0.19493
C         55.16470        27.53386         1.11617
C         53.97439        26.88676         1.15728
C         55.25172        28.99710         1.20973
C         53.91722        29.79146         1.20826
C         55.17718        31.77926         0.30008
C         53.93841        31.17906         0.67150
C         55.19654        33.11957        -0.27541
C         53.98059        33.79781        -0.55791
C         55.15977        35.46519        -1.79098
C         53.94176        35.06620        -1.20123
C         55.12022        37.69240        -2.08104
C         53.94531        38.12023        -1.49210
C         55.20275        40.23975        -0.88679
C         53.93252        39.51771        -1.05414
C         55.21834        41.54126        -0.38085
C         53.90424        42.16108         0.04100
C         55.16293        44.34030         0.31812
C         53.93451        43.66965         0.13998
C         55.16448        45.72532         0.58092
C         53.96083        46.41223         0.69345
C         56.42298        29.68108         0.67171
C         56.38017        31.00016         0.31619
C         56.41078        33.72612        -0.67976
C         56.38212        34.84520        -1.49869
C         56.34473        38.42800        -2.04179
C         56.40031        39.62848        -1.39196
C         56.42378        42.28703        -0.16420
C         56.40322        43.60330         0.20513
O         37.85626        49.21881         1.80529
O         40.94148        35.81538         0.30895
O         30.96861        41.97004         1.82500
O         51.31030        30.67295         2.10814
O         42.79457        36.52210        -2.67710
O         30.29366        28.11223        -2.16244
O         48.99258        38.83751        -2.66356
O         36.09119        39.75975         1.43458
O         42.17678        23.11034         2.79518
O         54.68173        29.57280         2.42751
O         34.62171        46.40663        -1.43025
O         30.51428        32.28303         1.32962
O         31.38197        34.43486        -1.64088
O         40.60433        37.91073        -2.59950
O         35.76274        25.20778         1.53041
O         42.83281        40.50184         0.91363
O         42.78866        49.90892        -0.94445
O         39.45096        33.37409         0.45509
O         38.54853        31.27288        -2.34549
O         40.26536        49.94873        -0.85626
O         39.10574        43.29530        -1.50526
O         55.17000        36.47079        -2.76575
O         45.90961        24.73517        -0.65668
O         50.41925        28.21427        -0.61758
O         48.44237        48.37611         1.93101
O         41.92041        31.56346         1.08704
O         47.06598        42.37787        -2.08388
O         35.18608        27.63755        -2.20682
O         47.65744        44.83405         1.62611
O         52.04708        32.93296        -1.73685
O         53.01105        42.18381        -2.20887
H         52.49306        41.60831        -2.82065
O         48.73811        31.48183         2.22736
H         49.59163        31.21742         2.64973
O         39.67572        23.67246         2.81760
H         40.49097        23.83263         3.34921
O         30.25388        37.21595         1.94332
H         30.27683        38.13269         2.29338
O         40.11594        44.26708         1.89813
H         40.89894        44.66810         2.33082
O         51.44606        46.69163         2.23475
H         50.58708        47.09981         2.47996
O         51.56122        39.78434        -3.00229
H         50.70437        39.44450        -3.36346
O         36.80726        29.39728        -2.96371
H         36.44096        28.53144        -3.26044
O         53.59771        41.65829         1.37795
H         54.27110        42.01632         1.99354
O         27.91268        31.50293         1.92782
H         28.80220        31.86013         2.16831
H         26.86067        26.84188        -0.60635
H         25.64436        28.99585        -0.54520
H         25.62225        31.28972         0.26708
H         25.66574        33.25017         0.23028
H         25.65945        35.68691         0.10127
H         25.70628        37.60002        -0.51295
H         25.72508        40.03423        -0.45618
H         25.72415        41.94545        -0.33669
H         25.74395        44.38136        -0.02172
H         26.95852        46.48421         0.38117
H         28.92454        25.53745        -0.65849
H         29.07447        47.71823         0.59453
H         32.74032        23.50944         0.24695
H         30.63701        24.66150        -0.27816
H         32.86587        49.84052         0.87027
H         30.77159        48.62672         0.94478
H         34.47497        22.53223        -0.06187
H         34.49139        50.84719         0.23216
H         36.56899        21.38488         0.36297
H         36.56862        52.04736         0.58448
H         40.32938        19.32491         1.11722
H         38.25140        20.49654         0.56265
H         40.42584        53.27438         3.24202
H         38.27542        52.27839         2.54189
H         42.71279        19.33400         1.72104
H         42.96845        53.23934         3.15293
H         44.85279        20.50633         1.65406
H         45.03205        52.18017         2.31817
H         48.62870        22.69238         1.39443
H         46.55338        21.45701         1.44221
H         48.62638        50.75797         0.58776
H         46.48583        51.95842         0.52550
H         50.19008        23.75862         1.85576
H         50.27939        49.67933        -0.12245
H         52.27739        25.01076         1.97231
H         52.36900        48.38308        -0.15463
H         56.09757        26.96765         0.97414
H         53.96068        25.78990         1.09184
H         56.11941        46.25009         0.72682
H         53.97120        47.47871         0.95820
H         57.33390        29.09291         0.48634
H         57.30286        31.44651        -0.07663
H         57.37996        33.27387        -0.43641
H         57.30646        35.24392        -1.93624
H         57.23885        37.98708        -2.50158
H         57.35853        40.15935        -1.32144
H         57.39748        41.79488        -0.29959
H         57.34698        44.14297         0.37039
