         349
 CSIRO Nanostructure Databank - Neutral Graphene Oxide Data Set
C          1.43772         2.08131         2.05536
C          1.39812         3.47796         1.91348
C          2.62323         1.38878         1.87611
C          2.54616         4.21553         1.59137
C          1.32251         6.40950         1.47121
C          1.30015         7.82017         1.25485
C          2.48116         5.65704         1.39826
C          2.39384         8.52298         0.77500
C          1.19412        10.67607         0.45978
C          1.17652        12.04224         0.16985
C          2.39108         9.94175         0.46007
C          2.36115        12.74375        -0.07309
C          1.09206        14.97145        -0.37110
C          1.05403        16.30228        -0.22808
C          2.37085        14.18816        -0.54516
C          2.24615        17.19090         0.05269
C          2.32224        18.39463        -0.85544
C          3.81811         2.08683         1.56277
C          3.79267         3.51037         1.42356
C          5.04110         1.38327         1.37295
C          5.01534         4.17977         1.13617
C          3.73883         6.39040         1.12568
C          3.61986         7.74778         0.50417
C          5.03341         5.65675         1.01532
C          4.90975         8.48062         0.19074
C          3.62364        10.63757         0.18502
C          3.60281        12.05648        -0.02829
C          4.86971         9.94877         0.15968
C          4.85068        12.77794        -0.17612
C          3.58940        14.91394        -0.01179
C          3.56238        16.41845         0.09533
C          4.87560        14.20312        -0.20783
C          4.81352        17.11934        -0.20660
C          3.49590        18.99061        -1.13218
C          4.78239        18.40743        -0.74661
C          6.22249         2.04982         1.10395
C          6.22305         3.47411         1.01043
C          7.48412         1.26658         0.82361
C          7.49562         4.19309         0.95348
C          6.21863         6.27765         0.29397
C          6.20107         7.79345         0.37818
C          7.49683         5.63631         0.80006
C          7.36650         8.51607         0.38010
C          6.09791        10.65009         0.07223
C          6.08350        12.07406        -0.09790
C          7.34267         9.95448         0.19898
C          7.31498        12.78673        -0.18374
C          6.08939        14.91671        -0.20880
C          6.11023        16.41531         0.09393
C          7.31413        14.21644        -0.25634
C          7.29508        17.12094        -0.50731
C          5.98730        19.12208        -0.95529
C          7.24040        18.46903        -0.84373
C          8.76272         2.05373         1.04222
C          8.69245         3.50121         1.07987
C          9.95242         1.38493         1.08333
C          9.97979         4.25051         1.34058
C          8.66884         6.36512         0.81425
C          8.68578         7.77273         0.25615
C          9.94575         5.71122         0.95677
C          9.85157         8.58494         0.81419
C          8.55599        10.68891         0.10493
C          8.54319        12.06798        -0.11685
C          9.83150        10.04355         0.51830
C          9.82148        12.78543        -0.44902
C          8.57711        14.93526        -0.26579
C          8.57440        16.37236        -0.74871
C          9.76967        14.26880        -0.17861
C          9.75420        17.21915        -0.19898
C          8.49609        19.23478        -1.13980
C          9.81326        18.60587        -0.83803
C         11.28946         2.08115         1.20251
C         11.15472         3.52268         0.68034
C         12.39893         1.42343         0.42396
C         12.46410         4.27439         0.75072
C         11.14009         6.38958         0.83448
C         11.19385         7.88745         1.05829
C         12.41311         5.69097         0.75355
C         12.34705         8.57876         0.36254
C         11.11129        10.76697         0.33182
C         11.08833        12.11222         0.01593
C         12.34689        10.00224         0.23171
C         12.31049        12.85609        -0.16961
C         11.06281        14.98431        -0.23842
C         11.09172        16.47529        -0.30944
C         12.29338        14.19385        -0.47738
C         12.22431        17.19788        -1.05995
C         11.07378        19.33953        -0.57338
C         12.28224        18.65227        -0.61061
C         13.59435         2.07661         0.21152
C         13.67917         3.53263         0.53353
C         14.63775         1.34228        -0.48834
C         14.85813         4.26515         0.41954
C         13.57772         6.46201         0.46459
C         13.52163         7.83871         0.13577
C         14.91246         5.76831         0.50638
C         14.63472         8.52281        -0.65738
C         13.55496        10.68788        -0.04605
C         13.59428        12.15604         0.24967
C         14.74648        10.01195        -0.40166
C         14.83356        12.85478        -0.22668
C         13.54984        14.94821        -0.70456
C         13.54594        16.43706        -0.93848
C         14.81229        14.34595        -0.09899
C         14.78727        17.16979        -0.60130
C         13.52604        19.27833        -0.36034
C         14.76942        18.57850        -0.38929
C         16.01759         1.59500        -0.38320
C         16.14307         3.67115         0.17713
C         17.08572         1.29916        -1.23402
C         17.04211         4.18578        -0.73738
C         15.79438         6.30167        -0.60138
C         15.95424         7.77993        -0.57765
C         16.67270         5.48412        -1.23791
C         17.24848         8.49202        -0.84092
C         15.93604        10.70942        -0.64982
C         15.98415        12.16420        -0.58227
C         17.22317         9.98977        -0.77140
C         17.19083        12.89189        -0.92761
C         16.04218        15.03463        -0.60565
C         16.01546        16.46239        -0.59273
C         17.22373        14.31929        -0.86552
C         17.25255        17.16695        -0.51433
C         16.00389        19.25054        -0.17710
C         17.23788        18.57457        -0.25698
C         18.35578         2.02004        -1.12928
C         18.42541         3.55012        -0.86051
C         19.54171         1.35346        -1.16587
C         19.53389         4.23551        -1.73402
C         18.49948         6.58728        -1.89003
C         18.49350         7.85626        -1.38297
C         19.67814         5.72937        -2.02645
C         19.75389         8.58819        -1.49369
C         18.49094        10.72622        -1.06745
C         18.38132        12.18137        -1.38129
C         19.73407         9.98705        -1.43184
C         19.72526        12.94731        -1.48179
C         18.47680        15.05178        -0.94576
C         18.48034        16.45196        -0.64732
C         19.70990        14.38523        -1.12432
C         19.71434        17.14910        -0.49947
C         18.48759        19.22900        -0.01689
C         19.69309        18.54517        -0.10484
C         20.84842         2.05971        -1.19299
C         20.86228         3.52373        -1.58325
C         21.99477         1.56858        -0.43500
C         22.10842         4.30323        -1.40201
C         20.98698         6.43369        -1.93508
C         20.97812         7.87768        -1.80704
C         22.16699         5.69384        -1.77864
C         22.19967         8.60625        -1.79303
C         20.95206        10.72582        -1.44899
C         20.95005        12.15715        -1.30848
C         22.18123        10.00838        -1.51302
C         22.14459        12.82821        -0.97483
C         20.93136        15.08960        -0.97642
C         20.94141        16.46487        -0.66881
C         22.19923        14.31991        -1.06984
C         22.20427        17.31207        -0.74175
C         20.92842        19.15964         0.32055
C         22.14323        18.52881         0.17689
C         23.17847         2.29620        -0.37018
C         23.25349         3.63259        -0.96415
C         24.30422         1.78003         0.34174
C         24.53808         4.25535        -1.12237
C         23.48303         6.33321        -2.03084
C         23.48766         7.92048        -2.08875
C         24.67997         5.48327        -1.76625
C         24.73256         8.88223        -2.11186
C         23.39042        10.70902        -1.13951
C         23.31932        12.08980        -0.77451
C         24.60322        10.01118        -1.13633
C         24.49903        12.75891        -0.18940
C         23.48553        15.03605        -0.79475
C         23.51316        16.52691        -0.58286
C         24.57985        14.24549        -0.14321
C         24.68997        17.12217         0.12687
C         23.32936        19.08548         0.76710
C         24.55325        18.44019         0.79109
C         25.57587         2.38622         0.27290
C         25.73302         3.48531        -0.72325
C         26.67569         1.92542         0.99362
C         27.08535         4.12179        -0.89957
C         26.01528         5.94119        -2.06441
C         26.05762         8.18053        -1.97967
C         27.16758         5.45126        -1.51354
C         27.11485         8.51510        -1.17714
C         25.80114        10.54917        -0.48447
C         25.76278        11.97615        -0.02455
C         27.10535         9.85321        -0.60701
C         27.05172        12.73778        -0.06161
C         25.86546        14.91172         0.20159
C         25.85328        16.27848         0.50861
C         27.04289        14.16065         0.37018
C         26.99941        16.88301         1.06826
C         25.70201        18.95570         1.47248
C         26.89225        18.24769         1.58259
C         27.97835         2.60365         0.97977
C         28.18882         3.75468         0.02867
C         29.19370         2.01118         1.54381
C         29.57536         4.10258        -0.47468
C         28.45575         6.26808        -1.52691
C         28.26742         7.60471        -0.72934
C         29.64026         5.52689        -0.93996
C         29.58045         8.36741        -0.55374
C         28.27518        10.46568        -0.20923
C         28.32136        11.94843        -0.08074
C         29.53956         9.74656        -0.20256
C         29.53927        12.59492         0.44042
C         28.23675        14.79570         0.76824
C         28.20013        16.14254         1.18807
C         29.52101        14.04274         0.72179
C         29.46703        16.85832         1.63234
C         27.98183        18.73574         2.38463
C         29.15120        18.02946         2.54051
C         30.40254         2.66863         1.42906
C         30.61363         3.77812         0.57063
C         31.86481         4.45571         0.53061
C         30.96249         6.23536        -1.00839
C         30.82398         7.70885        -0.59738
C         32.06580         5.56712        -0.23382
C         31.99986         8.43972        -0.34542
C         30.72542        10.44179         0.16575
C         30.68275        11.84117         0.62143
C         31.95360         9.76876         0.05747
C         31.78351        12.40334         1.37640
C         30.72164        14.62969         1.48483
C         30.50768        15.90851         2.21188
C         31.75952        13.66805         1.87605
C         31.29317        16.29606         3.25612
C         30.10953        18.41273         3.54227
C         31.12831        17.57557         3.89575
O         16.38443         2.41176         0.72825
O          9.56674         9.50255         1.90720
O         23.46246         7.09479        -3.28242
O         18.12369        10.46743         0.32701
O          8.89809         7.52161        -1.12257
O         26.63151         3.08446        -1.82734
O         18.93049        12.59122        -2.65994
O         24.10447        13.50141         1.04272
O         26.11712         7.09451        -2.85136
O          4.07817         7.84237        -0.87019
O         25.62749        10.92846         0.97257
O         11.87453        17.18653        -2.45934
O          4.69280         6.35655         2.26138
O         23.13509        14.69144        -2.16371
O         21.11118         2.48542        -2.59259
O         11.41002        15.85837         0.96543
O         27.78452        12.58363        -1.32550
O         27.89233         4.07906         1.39262
O         30.58662        14.77965         0.02684
O          3.55312        15.55057         1.30930
O         16.84703         8.07584         0.55236
O         13.74747        15.47407        -2.03927
O         17.33256         5.99935        -2.35169
O         19.40952         4.71138        -3.08236
O         24.57947        17.17007        -1.35984
O          6.26536        16.46869         1.56248
H          5.42110        16.11940         1.93549
O         24.68126         9.47404        -3.44065
H         24.60377         8.72601        -4.07495
O         22.19513        17.84332        -2.09370
H         23.13746        17.95939        -2.35837
O         15.51665         6.07103         1.80257
H         15.98803         6.93386         1.73195
O          8.73363        16.17678        -2.18335
H          8.80623        17.07280        -2.60354
O         28.77005         6.64137        -2.89875
H         28.47428         5.91524        -3.48748
O          2.61410        14.12894        -1.98812
H          1.92072        13.56522        -2.39078
O         14.24807         8.38620        -2.06250
H         13.35852         8.78334        -2.17761
O         31.38754         6.23079        -2.40952
H         30.61354         6.57333        -2.92566
O         10.84793         3.40211        -0.73393
H         10.66302         4.29969        -1.08550
O         13.57084        12.25912         1.71844
H         13.72079        13.21428         1.93223
O         27.87415         7.15778         0.59716
H         27.77922         7.94499         1.17396
O         11.50011         7.99884         2.47937
H         11.01633         8.79810         2.80403
O         29.81420         3.22657        -1.63953
H         30.67602         3.48941        -2.02840
O         11.70685         2.06991         2.58835
H         11.17122         2.74586         3.06778
O         19.01562         3.68175         0.46624
H         18.40403         3.24480         1.10133
O          6.14625         5.93677        -1.11297
H          6.93295         6.35661        -1.53637
O          9.48828        17.48279         1.18868
H          9.98936        16.81305         1.71318
O          2.02872        17.72539         1.38938
H          2.26903        17.00689         2.01664
O         30.05871        17.43493         0.42770
H         30.33657        16.67222        -0.13651
O         14.73066        14.67616         1.34531
H         15.59072        14.43382         1.75140
O          9.31207        18.71285        -2.24335
H         11.18504        17.86314        -2.63108
O          9.92704        12.71646        -1.92318
H          9.25760        13.32600        -2.30432
O         10.18659         4.24823         2.79191
H          9.55090         4.87934         3.19083
O          7.50525         0.04119         1.56185
H          7.61566         0.25572         2.51052
H          0.51512         1.53918         2.30500
H          0.43806         3.99187         2.05822
H          2.65112         0.29470         1.97966
H          0.36616         5.92806         1.71865
H          0.34962         8.34113         1.43794
H          0.24035        10.17095         0.66300
H          0.20940        12.56297         0.15040
H          0.14346        14.43363        -0.52770
H          0.07525        16.80707        -0.19463
H          1.37553        18.85401        -1.17589
H          5.04829         0.28625         1.45410
H          3.51911        19.92410        -1.71456
H          7.45220         0.97443        -0.26453
H          5.94631        20.17015        -1.28501
H          9.93738         0.28368         1.05135
H          8.40077        20.34075        -1.15909
H         12.29368         0.37169         0.11333
H         11.04996        20.41410        -0.33772
H         14.30704         0.51331        -1.13407
H         13.53428        20.35501        -0.13251
H         16.98557         0.52199        -2.00676
H         15.99508        20.33206         0.02480
H         19.55773         0.25614        -1.25277
H         18.48552        20.29007         0.27442
H         21.90948         0.61412         0.10479
H         20.87280        20.12528         0.84770
H         24.17411         0.86637         0.94069
H         23.22977        20.05051         1.28944
H         26.56254         1.03552         1.63151
H         25.62635        19.94879         1.94133
H         29.11625         1.08826         2.13619
H         27.82159        19.65196         2.97482
H         31.26608         2.29668         2.00303
H         32.69143         4.05747         1.14035
H         33.07572         5.99138        -0.31152
H         32.97960         7.95682        -0.45125
H         32.89447        10.29459         0.26760
H         32.61261        11.74118         1.66288
H         32.54480        13.98674         2.57623
H         32.09074        15.63677         3.62918
H         29.95665        19.36103         4.07881
H         31.82625        17.85505         4.69670
