         349
 CSIRO Nanostructure Databank - Neutral Graphene Oxide Data Set
C          1.28927         1.98289        -1.24068
C          1.23847         3.37006        -1.13992
C          2.51342         1.31014        -1.19965
C          2.42330         4.13388        -1.00822
C          1.20742         6.32465        -1.03493
C          1.21204         7.70930        -0.96611
C          2.39887         5.57931        -0.88078
C          2.38916         8.43173        -0.67847
C          1.10782        10.68832        -0.77288
C          1.08233        12.02955        -0.69725
C          2.42476         9.94802        -0.87621
C          2.32083        12.83730        -0.55852
C          1.02687        15.12363        -0.44196
C          1.07206        16.46842        -0.33703
C          2.29016        14.33394        -0.40696
C          2.33843        17.18478        -0.20295
C          2.38952        18.59839        -0.37328
C          3.71947         2.02549        -1.08355
C          3.67660         3.46041        -1.00925
C          4.96507         1.31854        -0.98117
C          4.89236         4.20189        -0.84465
C          3.60306         6.28195        -0.58681
C          3.58174         7.71030        -0.45117
C          4.84822         5.55902        -0.53358
C          4.82589         8.42115        -0.13837
C          3.45823        10.63873        -0.00141
C          3.51680        12.12258        -0.04678
C          4.70872         9.84650         0.28190
C          4.65304        12.82769         0.34414
C          3.41270        15.00397         0.37844
C          3.51780        16.47329         0.04041
C          4.72463        14.26054         0.34180
C          4.77166        17.14196         0.07387
C          3.59007        19.26932        -0.32508
C          4.81450        18.56343        -0.12081
C          6.17761         1.98629        -0.91226
C          6.20255         3.47868        -1.13839
C          7.43453         1.33814        -0.93734
C          7.33147         4.10948        -0.30542
C          6.07761         6.27015         0.00386
C          6.03641         7.78340        -0.10846
C          7.36746         5.64030        -0.57825
C          7.31091         8.51394         0.30636
C          5.94555        10.62387         0.41260
C          5.86710        12.07543         0.72037
C          7.13779        10.03145         0.08791
C          7.15847        12.85096         0.89489
C          5.95320        14.97684         0.43243
C          5.98390        16.41230         0.26097
C          7.19864        14.30048         0.61008
C          7.23527        17.09443         0.20925
C          6.05257        19.23661        -0.09251
C          7.26511        18.53917         0.05837
C          8.67688         1.99847        -0.75311
C          8.67345         3.40346        -0.37411
C          9.88207         1.27868        -1.06811
C          9.77121         4.13892         0.09588
C          8.62139         6.33474        -0.09715
C          8.62373         7.84896        -0.27678
C          9.73727         5.60630         0.21358
C          9.87107         8.48360         0.31436
C          8.26544        10.92315        -0.06739
C          8.39405        12.14104         0.51971
C         10.13586         9.80118         0.04143
C          9.69440        12.79267         0.84919
C          8.44542        14.96717         0.48417
C          8.44926        16.37136         0.26926
C          9.72019        14.27279         0.70804
C          9.73101        17.09003         0.14461
C          8.50144        19.23799         0.06868
C          9.73456        18.57508         0.16028
C         11.11262         1.55385        -0.44290
C         11.00296         3.51458         0.47733
C         12.42892         1.36308        -0.87665
C         12.25342         4.14563         0.45555
C         10.97881         6.23471         0.76571
C         10.97158         7.75240         0.95366
C         12.27487         5.54275         0.63201
C         12.26316         8.47012         0.97906
C         11.13743        10.58435         0.66627
C         11.00104        12.02718         0.94287
C         12.31228         9.88159         0.98644
C         12.26764        12.77009         1.09172
C         10.91400        14.93696         0.86641
C         11.00766        16.36798         0.49972
C         12.16503        14.22822         1.27142
C         12.14259        17.22889         1.03685
C         10.97103        19.24281         0.11278
C         12.21055        18.56487         0.30277
C         13.59706         1.99198        -0.31034
C         13.54006         3.30355         0.58277
C         14.82323         1.41224        -0.50949
C         14.75521         4.19517         0.23735
C         13.51128         6.25900         0.75526
C         13.48009         7.72740         0.73997
C         14.74701         5.61233         0.67919
C         14.81071         8.50132         0.88611
C         13.54000        10.62527         1.21738
C         13.48577        12.09771         1.27010
C         14.72531         9.92337         1.28576
C         14.71522        12.84504         1.31087
C         13.47794        15.00824         1.33742
C         13.48595        16.49702         1.10285
C         14.73588        14.25027         1.13766
C         14.74337        17.13945         0.61673
C         13.41191        19.15349        -0.06110
C         14.68629        18.47783        -0.02695
C         16.16759         2.09699        -0.44958
C         16.07690         3.56490        -0.04700
C         17.29501         1.36199         0.21644
C         17.29606         4.24539         0.46171
C         15.99727         6.32346         0.86136
C         16.00524         7.70099         1.12771
C         17.23955         5.57795         0.86930
C         17.23345         8.44443         1.61999
C         15.99674        10.61393         1.53539
C         15.99626        12.12380         1.46126
C         17.21285         9.86650         1.03827
C         17.25310        12.76064         1.04273
C         15.92896        14.92814         0.76793
C         15.95509        16.30187         0.41920
C         17.18950        14.15120         0.46057
C         17.13450        16.93178        -0.02825
C         15.81201        19.01511        -0.58563
C         17.08413        18.23454        -0.79111
C         18.49859         2.03500         0.45510
C         18.50132         3.47937         0.58488
C         19.73498         1.32102         0.54365
C         19.74240         4.15238         0.79150
C         18.47921         6.23618         1.44396
C         18.51607         7.73349         1.27423
C         19.75334         5.57791         1.00398
C         19.69818         8.44777         1.16092
C         18.50551        10.62527         1.19348
C         18.45072        12.06595         1.03261
C         19.69212         9.91736         1.12730
C         19.69472        12.77334         0.72222
C         18.43272        14.95379         0.83519
C         18.40817        16.31621         0.16447
C         19.66613        14.15008         0.50518
C         19.58669        17.01994        -0.03957
C         18.34450        19.04653        -0.63893
C         19.57060        18.42925        -0.39933
C         20.97409         1.99750         0.52194
C         20.94476         3.42472         0.62650
C         22.23116         1.30789         0.40763
C         22.19092         4.17895         0.45802
C         20.94000         6.32525         1.00824
C         20.95945         7.74438         1.08334
C         22.21877         5.58878         0.95481
C         22.20819         8.47829         1.05302
C         20.95205        10.62595         0.97722
C         20.92609        12.03959         0.71712
C         22.16688         9.92598         1.02149
C         22.14724        12.70968         0.37591
C         20.86106        14.89489         0.11561
C         20.88548        16.38439         0.39450
C         22.15176        14.14799         0.02262
C         22.14253        17.04483        -0.14144
C         20.81382        19.13219        -0.47695
C         22.07993        18.48362        -0.45959
C         23.47366         1.96599         0.30994
C         23.48261         3.45007         0.26750
C         24.71276         1.32878         0.12597
C         24.77088         4.18211         0.64347
C         23.50973         6.34007         0.94705
C         23.43696         7.81163         0.96196
C         24.68152         5.67369         0.21964
C         24.73135         8.50643         1.09612
C         23.42714        10.68440         0.89010
C         23.35030        12.04116         0.34709
C         24.74846         9.99130         0.93829
C         24.48658        12.70194        -0.38725
C         23.41455        14.93603         0.34128
C         23.32132        16.36167        -0.16950
C         24.63171        14.17103        -0.09243
C         24.62789        17.10689        -0.33236
C         23.25598        19.17274        -0.75929
C         24.50396        18.41072        -1.12470
C         25.94865         2.05373        -0.03104
C         26.00869         3.46982         0.15413
C         27.14379         1.38490        -0.38600
C         27.24343         4.14299         0.17665
C         26.02619         6.38936         0.38780
C         26.03396         7.78929         0.92286
C         27.30637         5.63173         0.33139
C         27.28444         8.55785         0.63436
C         25.91221        10.55463         0.17335
C         25.80817        11.93316        -0.39306
C         27.24425         9.89469         0.31120
C         27.06673        12.68623        -0.61305
C         25.76087        14.80886        -0.73739
C         25.76789        16.29745        -0.93116
C         27.03966        14.07785        -0.79108
C         27.07114        16.99815        -0.97608
C         25.81445        19.15070        -1.00846
C         27.03029        18.44814        -0.96648
C         28.37366         2.06680        -0.44486
C         28.43594         3.43803        -0.06695
C         29.57006         1.42298        -0.93534
C         29.75037         4.11461        -0.00002
C         28.55419         6.29102         0.91939
C         28.56699         7.82336         0.72252
C         29.84732         5.59304         0.40489
C         29.79883         8.55481         0.21177
C         28.41664        10.61473        -0.15839
C         28.30643        11.98454        -0.59820
C         29.64964         9.95202        -0.26823
C         29.47159        12.67487        -1.05131
C         28.22067        14.80933        -1.10651
C         28.27108        16.27732        -1.00636
C         29.33227        14.03169        -1.49800
C         29.52509        16.98556        -0.79901
C         28.27727        19.12369        -1.00983
C         29.49444        18.42389        -0.90852
C         30.72918         2.12880        -1.14328
C         30.85739         3.49540        -0.74642
C         32.02652         4.23769        -0.93603
C         30.99390         6.35465        -0.15444
C         30.98049         7.77800        -0.23066
C         32.08089         5.61060        -0.66752
C         32.07901         8.53150        -0.71408
C         30.82033        10.64966        -0.71549
C         30.75304        12.04975        -0.97006
C         32.03494         9.90661        -0.85844
C         31.96451        12.86727        -0.97679
C         30.94412        14.95960         0.09193
C         30.77738        16.37712        -0.43890
C         32.05713        14.13734        -0.51001
C         31.93465        17.15494        -0.38567
C         30.71164        19.17086        -0.86756
C         31.91435        18.54215        -0.64200
O         14.37052        17.17976         2.05611
O         25.42342        15.48263        -2.07021
O         30.21711         4.54302         1.33715
O          6.40080        12.41230         2.05925
O         15.31140         4.22696        -1.13459
O         24.33762        10.70805         2.12811
O         10.65570        16.57344        -0.90125
O         12.74682        14.67067         2.55126
O         13.64028         2.92744         1.89744
O         14.21159         8.26072        -0.43121
O         10.96360         2.17596         0.82189
O         26.81770         6.33222        -0.86361
O         10.14652        12.30104         2.16143
O          9.31874        10.48116        -0.87304
O         25.63822        10.74817        -1.27017
O          2.64040        13.74852        -1.69320
O         21.44466        14.51767        -1.18326
O         16.11850        11.37757         2.74525
O          3.67850        10.05202         1.31537
O         10.71121         6.85382         2.07968
O         29.51116         8.42713         1.66534
O         22.76188         3.96921        -0.88810
O         25.51008         7.99096         2.26226
O         30.28576        14.56943         1.04151
O         23.01491         5.73351         2.18369
O         18.37537         6.00790         2.92191
H         19.26727         6.17063         3.30052
O         30.24471        14.54172        -2.36253
H         29.98579        15.45172        -2.61653
O         18.42972        15.17056         2.26524
H         19.27894        15.62401         2.48909
O         25.04062        17.42020         1.03079
H         24.45139        18.13022         1.36427
O         17.04828        17.83343        -2.22385
H         17.84764        17.28865        -2.39177
O         23.46555        15.01980         1.80647
H         24.19461        15.64221         2.03064
O         24.35273         5.79988        -1.17168
H         25.19170         5.73537        -1.68387
O         16.59972         2.10681        -1.86234
H         16.13913         2.87534        -2.27512
O          2.91766        10.14210        -2.23792
H          2.22460         9.83884        -2.86070
O          6.41992         3.54475        -2.56675
H          6.58294         4.48733        -2.81045
O          7.47423         8.38090         1.73414
H          6.69051         8.76022         2.18398
O         17.24781        13.99227        -0.99156
H         16.56406        13.34465        -1.26270
O          6.07339         6.07800         1.44826
H          5.20542         6.38106         1.78769
O         11.76655        17.52785         2.40267
H         12.60032        17.69092         2.89987
O         24.91670         4.16317         2.08374
H         25.15324         3.25448         2.36280
O          6.93840         3.82979         1.06013
H          7.51513         4.33920         1.66881
O         24.35052        18.03401        -2.53071
H         24.20062        18.85191        -3.04841
O         20.91754        16.51338         1.85864
H         20.92185        17.47100         2.07074
O         17.16335         8.53151         3.06346
H         17.38500         7.63315         3.41092
O          8.64204         8.08698        -1.71249
H          8.81372         9.05328        -1.84626
O          2.95831        14.93301         1.77585
H          3.68110        15.27199         2.34536
O         24.04164        12.70832        -1.79085
H         24.35084        11.85779        -2.18228
O         28.45989         6.07062         2.33298
H         29.12737         6.64536         2.76796
O          7.30645         5.85215        -2.01201
H          7.73204         6.72181        -2.22253
O         17.01224         9.75226        -0.39999
H         17.73654         9.20354        -0.76903
H          0.35590         1.41060        -1.33486
H          0.25850         3.86594        -1.14706
H          2.53968         0.21226        -1.25208
H          0.26215         5.81413        -1.26233
H          0.26963         8.24239        -1.15238
H          0.15733        10.13938        -0.84545
H          0.11528        12.55518        -0.70746
H          0.07319        14.61272        -0.63998
H          0.14949        17.06318        -0.41460
H          1.45418        19.14817        -0.55232
H          4.93955         0.21798        -0.94244
H          3.62245        20.36014        -0.45967
H          7.45466         0.24498        -1.07447
H          6.07289        20.33026        -0.21131
H          9.82300         0.48758        -1.83179
H          8.48568        20.33651         0.00352
H         12.57622         0.79959        -1.81326
H         10.98612        20.31806        -0.12526
H         14.85198         0.40025        -0.94768
H         13.38346        20.14901        -0.53241
H         17.28671         0.26078         0.20008
H         15.75649        20.01021        -1.05445
H         19.71497         0.22336         0.47401
H         18.31836        20.11059        -0.91854
H         22.21209         0.20809         0.37110
H         20.78574        20.20767        -0.70951
H         24.74858         0.23124         0.05587
H         23.19444        20.24022        -1.02720
H         27.11070         0.31306        -0.63089
H         25.83518        20.24734        -1.10722
H         29.51315         0.36252        -1.21999
H         28.29656        20.22185        -1.07125
H         31.59891         1.63441        -1.60086
H         32.90119         3.75255        -1.39324
H         32.99795         6.13964        -0.95936
H         33.02024         8.02226        -0.96070
H         32.94366        10.42232        -1.19638
H         32.89503        12.39186        -1.32834
H         33.03708        14.63549        -0.58533
H         32.88545        16.68733        -0.09244
H         30.66574        20.26182        -0.99582
H         32.85011        19.11606        -0.60319
