         294
 CSIRO Nanostructure Databank - Neutral Graphene Oxide Data Set
C          1.14942         1.96647        -0.36601
C          1.08151         3.32978        -0.41887
C          2.40805         1.29695        -0.42585
C          2.36793         4.09512        -0.64386
C          1.06568         6.35722        -0.01059
C          1.07276         7.68938         0.18707
C          2.26592         5.63466        -0.51221
C          2.24222         8.56035        -0.24691
C          1.09478        10.78302        -0.15078
C          1.13897        12.13136        -0.14399
C          2.24577         9.96943         0.37106
C          2.33628        12.85116         0.23991
C          1.15196        15.04742         0.16492
C          1.15834        16.44579         0.15129
C          2.33280        14.27324         0.35721
C          2.32996        17.16009         0.40214
C          2.41011        18.60366         0.41210
C          3.60984         1.99862        -0.22960
C          3.45616         3.44083         0.26869
C          4.84686         1.38915        -0.45216
C          4.78391         4.20482         0.29809
C          3.54437         6.39705        -0.39167
C          3.56322         7.83531         0.11136
C          4.80276         5.66528        -0.03997
C          4.78934         8.60949        -0.45108
C          3.58005        10.70200         0.23179
C          3.56176        12.12732         0.37583
C          4.80161        10.02697         0.09371
C          4.79925        12.83051         0.52672
C          3.56235        14.94479         0.66112
C          3.52699        16.40388         0.80200
C          4.78971        14.25881         0.68212
C          4.85151        17.13987         0.80317
C          3.60710        19.24305         0.30646
C          4.82645        18.41787        -0.01276
C          6.10310         2.02527        -0.19966
C          6.07322         3.37501         0.48210
C          7.30080         1.36595        -0.34302
C          7.33240         4.20413         0.19721
C          6.03934         6.36571        -0.56983
C          6.09248         7.86330        -0.24376
C          7.30637         5.65780        -0.13985
C          7.26737         8.52998        -0.03622
C          6.04486        10.70233         0.29010
C          6.02413        12.10102         0.54265
C          7.31550         9.97409         0.23700
C          7.25721        12.81397         0.76420
C          6.05503        14.97959         0.80640
C          6.09775        16.36724         0.81800
C          7.26764        14.18824         0.85976
C          7.33742        17.21143         1.06408
C          6.15841        19.10456        -0.10057
C          7.34124        18.50072         0.19152
C          8.62130         1.99358         0.04114
C          8.57629         3.48544        -0.31716
C          9.84253         1.34296        -0.57142
C          9.87183         4.21365         0.01453
C          8.55605         6.40051        -0.60104
C          8.56766         7.76042         0.18388
C          9.87208         5.67228        -0.31208
C          9.81464         8.57106        -0.20452
C          8.52765        10.61066         0.51188
C          8.52369        12.03057         1.04118
C          9.83281         9.95138         0.43790
C          9.77637        12.75833         0.65171
C          8.58005        14.87160         1.12342
C          8.58488        16.36691         0.95824
C          9.70866        14.21031         0.31163
C          9.80733        16.95949         1.05415
C          8.56073        19.17016        -0.30022
C          9.78862        19.04179         0.26423
C         11.07825         1.99599        -0.50689
C         11.15221         3.38380         0.19381
C         12.31041         1.40639        -0.76540
C         12.38633         4.13045        -0.33458
C         11.11318         6.44044        -0.77463
C         11.13225         7.74941         0.04958
C         12.38139         5.58291        -0.67767
C         12.36077         8.64300        -0.24152
C         11.03396        10.58572         0.66331
C         11.08561        12.08839         0.92216
C         12.36067         9.79003         0.79194
C         12.21086        12.73813         0.07981
C         11.02544        14.97005         0.35916
C         11.03314        16.34611         0.59443
C         12.24966        14.26114         0.15833
C         12.12626        17.16495         0.01713
C         11.12871        19.48814        -0.12595
C         12.21119        18.66705        -0.03354
C         13.57111         1.91197        -0.09323
C         13.70078         3.42965        -0.26431
C         14.79591         1.15308        -0.51084
C         14.86071         4.05363        -0.58683
C         13.68597         6.34060        -0.71675
C         13.66585         7.81215        -0.39771
C         15.03970         5.57242        -0.74248
C         14.99328         8.47557        -0.08546
C         13.63236        10.62618         0.62874
C         13.55775        12.10170         0.40687
C         14.98109         9.86059         0.56871
C         14.79533        12.86576        -0.04979
C         13.43890        14.95954         0.02394
C         13.39176        16.37504        -0.36637
C         14.71590        14.29806         0.50271
C         14.67214        17.04805        -0.87076
C         13.58992        19.31577        -0.06282
C         14.70342        18.56510        -0.75886
C         15.98495         1.76073        -0.69807
C         16.11389         3.25910        -0.89429
C         17.21268         1.01166        -0.91733
C         17.26652         3.80820        -0.06492
C         16.10128         6.13993         0.31461
C         16.29050         7.70864         0.10822
C         17.38041         5.27957         0.23323
C         17.47718         8.58946         0.54128
C         16.13677        10.69049        -0.03993
C         16.07045        12.13942         0.50821
C         17.42654         9.97539         0.31538
C         17.32009        12.93463         0.19856
C         15.99640        15.07886         0.18445
C         15.95953        16.49782        -0.27009
C         17.26964        14.32508         0.03639
C         17.25069        17.21744        -0.69483
C         15.82992        19.19477        -1.15920
C         17.01076        18.39066        -1.67622
C         18.42168         1.57252        -0.62351
C         18.45055         2.89411         0.07343
C         19.66460         0.90350        -0.96222
C         19.78489         3.48254         0.41341
C         18.58096         5.68680         0.75013
C         18.65192         8.08742         1.18416
C         19.84344         4.94957         0.58724
C         19.72839         8.88081         1.62277
C         18.62820        10.79608         0.34646
C         18.56094        12.27605         0.29488
C         19.92107        10.19344         0.99678
C         19.72299        13.06341         0.39676
C         18.45538        15.01041        -0.32875
C         18.30451        16.21855        -1.24932
C         19.68764        14.40682        -0.03582
C         19.62261        16.99835        -1.49641
C         18.31953        19.13046        -1.79450
C         19.52879        18.46106        -1.75768
C         20.88197         1.44350        -0.72996
C         21.03650         2.73361        -0.02093
C         22.25018         3.52670        -0.23370
C         21.08441         5.56246         0.48565
C         20.68754         8.49173         2.63874
C         22.27541         4.84685         0.08603
C         21.73424         9.33629         2.98394
C         20.97271        11.10597         1.47053
C         20.99366        12.56905         1.05673
C         21.84674        10.63780         2.42230
C         22.17153        13.03153         0.21252
C         20.98322        15.20561        -0.03358
C         20.96631        16.44627        -0.92317
C         22.15356        14.26809        -0.30897
C         21.98834        17.44223        -0.70167
C         20.75834        19.18401        -1.87739
C         21.93809        18.68969        -1.32507
O          7.43331         5.22119         1.24709
O         16.03110        12.10268         1.91625
O          9.85428        18.29976         1.46386
O         13.67735        11.58795         1.74559
O          2.93191         6.25005        -1.69747
O         13.66828         7.32815        -1.79418
O         16.01457        16.23207         1.14794
O         15.90350         8.23476        -1.21110
O         17.91711        15.73880        -2.48833
O         20.57734        16.31914        -2.31653
O          4.78198         5.24787         1.34241
O          4.09622        17.03047         2.02997
O          9.86330         5.21679         1.06612
O         17.46424         3.01039         1.15713
O         12.25233         4.57067        -1.75038
O         12.34702        16.65718        -1.36157
O         19.72283        10.22291        -0.44597
O         11.25391         3.07213         1.54805
O         18.62725         6.76798         1.65187
O         20.56589         2.71385         1.38007
O         16.05612        10.77274        -1.48028
H         16.22476         9.86555        -1.83804
O          8.89898        14.63861         2.54149
H          8.33315        15.24179         3.07163
O          8.65613         7.54246         1.60424
H          8.19221         6.70569         1.84600
O         11.26821         7.33841         1.40412
H         10.37566         7.28882         1.83039
O         20.59368         7.31178         3.28694
H         19.85315         6.78367         2.90301
O          4.60878        17.91175        -1.38768
H          4.63729        18.68002        -1.99649
O          2.76316         3.78718        -2.00247
H          3.02799         4.63771        -2.43257
O         16.77021        17.99116        -3.03611
H         17.12923        17.05230        -3.13503
O         15.61416         5.78964        -2.04131
H         15.32143         6.68783        -2.33929
O         21.19655         6.91095         0.58278
H         22.12695         7.18405         0.46368
O         12.21995         9.33177        -1.50761
H         12.47340         8.67989        -2.20686
O          9.30030        14.26424        -1.09554
H         10.00799        13.81672        -1.61342
O         11.90958        12.44699        -1.31054
H         12.71238        12.70176        -1.82732
O         13.41477         1.60009         1.31576
H         12.64362         2.14538         1.66554
O         13.97938        19.49225         1.31868
H         14.28901        18.63249         1.67325
O          8.61629        11.91832         2.51774
H          8.61234        12.85503         2.85277
O          7.23478        17.68308         2.44217
H          8.03717        18.23009         2.60387
O         15.48858         5.97762         1.59843
H         16.17258         6.04819         2.29630
O          5.88669         6.21244        -2.00157
H          6.71141         6.55534        -2.42736
O          2.93991         3.39697         1.60931
H          3.70349         3.30063         2.21888
O          6.09716         3.05423         1.89397
H          6.29893         3.89617         2.36327
O          8.45789         3.50549        -1.76978
H          8.44788         4.43919        -2.08349
O         15.33505         9.60057         1.94202
H         15.53660        10.50686         2.32682
O          8.43137         6.61358        -2.01863
H          9.07373         7.33985        -2.26109
O         11.34525        12.34816         2.32572
H         10.57791        11.97773         2.82447
O          4.63012         8.72415        -1.88849
H          5.42480         9.17117        -2.24618
O         21.05076        13.32550         2.32254
H         21.83423        13.01920         2.82527
O         16.45779         3.36668        -2.30057
H         16.21522         4.27403        -2.60786
O          8.86223         1.82383         1.45290
H          9.73795         2.28142         1.68212
O         17.82795        17.82901         0.47278
H         17.48873        17.32137         1.25252
O         11.00759         6.77651        -2.17339
H         11.32510         5.99092        -2.67715
O         14.76057        13.00570        -1.47929
H         15.26625        12.25627        -1.88527
O          3.71309         7.75550         1.53547
H          3.19729         8.48103         1.96318
O         14.74982        16.66976        -2.26082
H         13.86836        16.83809        -2.66077
O          2.10629         8.78469        -1.65900
H          2.36872         7.95212        -2.12117
O          9.66367         8.87245        -1.61487
H         10.51357         9.30348        -1.89732
O          2.02110         9.82072         1.81553
H          2.05278        10.71538         2.21699
O         21.16300        15.77309         1.29111
H         21.08476        15.01832         1.93433
O         12.42096         9.29773         2.13376
H         12.78451        10.02365         2.68849
O         14.56812        14.25916         1.92969
H         15.11323        13.48456         2.26068
H          0.22814         1.36607        -0.33523
H          0.10642         3.83780        -0.44083
H          2.43555         0.21592        -0.63127
H          0.18439         5.76688         0.28175
H          0.17531         8.17741         0.59762
H          0.18356        10.25663        -0.46804
H          0.25742        12.69739        -0.47434
H          0.19776        14.53973        -0.02658
H          0.22722        16.98578        -0.07394
H          1.47510        19.17970         0.49069
H          4.85916         0.35623        -0.83687
H          3.66593        20.34138         0.31758
H          7.30244         0.34129        -0.74887
H          6.17590        20.05416        -0.66333
H          9.84603         0.23972        -0.62311
H          8.44816        19.78693        -1.20472
H         12.36377         0.51759        -1.41795
H         11.28934        20.55582        -0.35528
H         14.74803         0.05569        -0.43172
H         13.49715        20.34298        -0.49781
H         17.15637        -0.01390        -1.31418
H         15.91407        20.29071        -1.07635
H         19.58733        -0.06521        -1.47883
H         18.31673        20.20738        -2.03425
H         21.79399         0.92583        -1.06280
H         23.13084         3.04556        -0.68425
H         23.19353         5.43463        -0.06573
H         22.44382         9.01844         3.75710
H         22.66441        11.28197         2.78293
H         23.02494        12.35628         0.04470
H         23.00124        14.63780        -0.90707
H         22.79647        17.22181         0.01143
H         20.73743        20.20365        -2.29031
H         22.81303        19.35324        -1.26450
