         490
 CSIRO Nanostructure Databank - Neutral Graphene Oxide Data Set
C         37.59652        50.13849         0.04327
C         36.41969        50.87247         0.06930
C         37.67268        52.87237         0.58281
C         36.45870        52.24947         0.33647
C         40.10214        48.64138        -0.18386
C         40.09201        49.99770         0.22769
C         38.84771        50.75178         0.28503
C         40.15851        52.78422         0.86120
C         38.88723        52.14482         0.56776
C         40.24110        54.17599         1.09532
C         42.53132        48.51723        -0.03582
C         41.28726        47.93026        -0.31792
C         42.55667        49.87255         0.46682
C         41.31811        50.61679         0.56332
C         42.57494        52.62568         1.32876
C         41.35491        52.01074         0.93645
C         42.63303        54.01697         1.54653
C         41.44590        54.77879         1.39624
C         44.93069        45.76915        -1.06185
C         43.79169        46.47992        -0.88204
C         44.97434        48.37998         0.09348
C         43.77580        47.78652        -0.24062
C         45.02874        49.65933         0.88003
C         43.75466        50.45305         0.88613
C         45.09735        52.53738         1.51127
C         43.78339        51.76978         1.62385
C         45.11834        53.89089         1.78341
C         43.89980        54.66913         1.85498
C         45.19178        56.72944         2.25671
C         43.97588        56.03819         2.13748
C         47.50996        44.27550        -1.46292
C         47.49385        45.68884        -1.15264
C         46.23788        46.26061        -0.58905
C         47.48959        48.49137        -0.24947
C         46.26187        47.67091        -0.05708
C         47.43480        49.83337         0.01043
C         46.17317        50.57368         0.38351
C         47.58457        52.57212         1.00990
C         46.38656        51.73307         1.39594
C         47.69994        53.90185         1.61654
C         46.39857        54.60336         2.04022
C         47.67563        56.77264         2.11481
C         46.42430        56.07121         2.16153
C         47.79878        58.15098         2.53703
C         49.88381        44.35461        -2.11263
C         48.62673        43.62834        -1.87774
C         49.85350        45.84403        -1.88873
C         48.63211        46.46314        -1.28740
C         49.87447        48.56813        -0.89368
C         48.68715        47.84783        -0.83399
C         49.88705        49.90601        -0.14978
C         48.60105        50.70907        -0.38714
C         49.84546        52.85056         0.14959
C         48.65330        52.06029         0.31166
C         49.94854        54.17881         0.57557
C         48.84619        54.75465         1.28034
C         49.99197        56.93052         1.18991
C         48.82993        56.11962         1.60394
C         50.02332        58.40020         1.49738
C         48.92156        58.89738         2.33764
C         52.43488        41.54716        -1.48086
C         51.28050        42.17748        -1.80150
C         52.46943        44.39449        -1.73469
C         51.24181        43.62620        -2.05136
C         52.45442        45.80291        -1.68330
C         51.17249        46.56250        -1.77446
C         52.31230        48.68373        -1.37006
C         51.13920        47.97063        -1.29056
C         52.27158        50.14209        -1.12897
C         51.09422        50.75597        -0.48280
C         52.25805        53.00371        -0.76935
C         50.97338        52.24487        -0.58031
C         52.39913        54.32196        -0.12515
C         51.20052        54.93442         0.45131
C         52.56097        56.91681         1.24459
C         51.25376        56.24357         0.86166
C         52.53782        58.44204         1.11670
C         51.32394        59.12629         1.36388
C         52.46595        61.24664         1.09892
C         51.30206        60.52652         1.34703
C         54.95038        40.13334        -0.98913
C         54.91091        41.55344        -1.11594
C         53.68958        42.25579        -1.35351
C         54.91329        44.39333        -1.26694
C         53.68155        43.67579        -1.45504
C         54.88443        45.83766        -1.22552
C         53.65729        46.50923        -1.40898
C         54.92789        48.68035        -1.46738
C         53.62956        47.98590        -1.08596
C         55.10744        49.90460        -2.02829
C         53.23735        51.05241        -1.76582
C         54.85512        52.82999        -0.93760
C         53.46923        52.29511        -1.25357
C         54.78734        54.36902        -0.86132
C         53.60921        54.96206        -0.14308
C         55.05069        57.03681         0.42180
C         53.78750        56.24426         0.59794
C         55.08803        58.49095         0.92027
C         53.72741        59.17967         0.92280
C         54.89374        61.44125         0.52201
C         53.69178        60.59288         0.90996
C         55.03022        62.72862         1.29061
C         57.37362        40.15866        -0.67678
C         56.13000        39.46515        -0.76934
C         57.37688        41.54857        -0.80958
C         56.15124        42.27168        -1.01971
C         57.43104        44.44832        -1.08827
C         56.12301        43.69271        -1.09181
C         57.33064        45.89391        -0.68150
C         56.08815        46.57582        -0.91018
C         57.29741        48.72872        -0.76342
C         56.11689        47.99297        -0.98732
C         57.36453        50.11497        -1.04461
C         56.35617        50.74319        -1.98278
C         57.31795        53.02631        -1.28300
C         56.06699        52.32057        -1.80896
C         57.33434        54.39634        -1.15000
C         56.05833        55.14909        -0.99413
C         57.35253        57.18953        -0.51563
C         56.16049        56.50920        -0.41942
C         57.32635        58.65476        -0.33807
C         56.17058        59.31676         0.25559
C         57.44268        61.41095         0.46655
C         56.19942        60.68828         0.43223
C         57.46409        62.78884         0.92214
C         56.20612        63.38752         1.34526
C         59.78568        37.34863         0.13600
C         58.65390        38.03529        -0.33497
C         59.79502        40.15107        -0.00385
C         58.61329        39.43062        -0.36761
C         59.80834        41.57763        -0.04362
C         58.70293        42.28698        -0.79656
C         59.74426        44.48706        -0.05567
C         58.47006        43.70829        -0.24358
C         59.73806        45.86512        -0.10046
C         58.48954        46.57317        -0.35337
C         59.76003        48.74011        -0.25273
C         58.43566        48.04949        -0.04775
C         59.75757        50.12845        -0.49308
C         58.53912        50.82108        -0.79300
C         59.81851        52.97579        -1.02804
C         58.51145        52.31367        -0.68862
C         59.81800        54.39524        -1.16624
C         58.59796        55.12011        -1.04937
C         59.82223        57.27669        -0.85225
C         58.59786        56.54100        -0.88714
C         59.88722        58.64863        -0.54893
C         58.64276        59.42644        -0.42384
C         59.92151        61.36882         0.41768
C         58.66653        60.75907         0.18655
C         59.96828        62.67708         1.16186
C         58.67510        63.46591         1.05919
C         59.89641        65.57926         1.36153
C         58.73048        64.88704         1.28594
C         62.12744        35.85691         1.10098
C         62.05302        37.34084         1.28879
C         60.91498        38.03185         0.56906
C         62.14937        40.17892         0.75903
C         60.95127        39.45340         0.46082
C         62.14124        41.59488         0.70413
C         60.93305        42.28362         0.36235
C         62.18640        44.49316         0.54773
C         60.87023        43.76895         0.63110
C         62.18650        45.90806         0.37232
C         60.97409        46.60986         0.12033
C         62.21225        48.76589        -0.02989
C         60.97529        48.03231        -0.05280
C         62.19962        50.15152        -0.28786
C         60.99644        50.84927        -0.57886
C         62.29281        52.91569        -1.31804
C         61.00225        52.23822        -0.92530
C         62.26201        54.40326        -1.07113
C         61.08725        55.09584        -1.13501
C         62.36222        57.26105        -0.79045
C         61.09485        56.59818        -1.29461
C         62.36782        58.66603        -0.52944
C         61.12558        59.34742        -0.37770
C         62.37522        61.42218         0.16703
C         61.12058        60.71743         0.06409
C         62.35442        62.85880         0.43485
C         61.21708        63.47855         0.86371
C         62.46785        65.70677         1.09972
C         61.20775        64.91250         1.25877
C         62.46612        67.18485         0.92420
C         64.57037        35.88414         1.20281
C         63.32424        35.19960         1.15052
C         64.60361        37.30583         1.14579
C         63.37646        38.03247         1.06561
C         64.61265        40.13634         1.10944
C         63.38380        39.43981         0.99070
C         64.58346        41.60222         1.21209
C         63.34351        42.35641         0.91956
C         64.66377        44.52492         1.05499
C         63.36812        43.76386         0.80912
C         64.67029        45.94230         0.51859
C         63.44255        46.63984         0.37960
C         64.70491        48.72557         0.15809
C         63.45786        48.04832         0.18008
C         64.74550        50.19466         0.09652
C         63.43852        50.94031        -0.16889
C         64.75776        52.92058        -0.86311
C         63.52387        52.27205        -0.74591
C         64.79140        54.35470        -0.97353
C         63.52240        55.05608        -0.57417
C         64.80782        57.21551        -0.57775
C         63.54977        56.54679        -0.73593
C         64.82132        58.61632        -0.32199
C         63.61330        59.33325        -0.26080
C         64.84889        61.47655         0.20798
C         63.59228        60.75238         0.02066
C         64.87038        62.84182         0.24761
C         63.58964        63.62602         0.01098
C         64.84933        65.71929         0.51052
C         63.68267        65.03428         0.55413
C         64.93104        67.10235         1.12875
C         63.63185        67.84338         0.86486
C         67.05228        33.13575         0.51412
C         65.88534        33.79870         0.63984
C         67.10290        35.85831         1.27804
C         65.82024        35.07988         1.44325
C         67.10647        37.28192         1.17557
C         65.85160        38.01184         1.12494
C         67.10303        40.15469         1.03078
C         65.85414        39.43801         1.10919
C         67.14813        41.54917         1.00030
C         65.89763        42.32734         1.13534
C         67.17193        44.43020         0.69230
C         65.86332        43.70831         0.51607
C         67.18788        45.85137         0.18354
C         65.89344        46.60849         0.36257
C         67.19488        48.74236         0.14509
C         65.92708        48.01826         0.19513
C         67.21300        50.09880        -0.16329
C         65.99548        50.84710        -0.32012
C         67.23543        52.79054        -1.23771
C         65.98816        52.16689        -0.76034
C         67.24247        54.38639        -1.33853
C         65.98509        55.08341        -1.00265
C         67.29036        57.23793        -1.02549
C         66.01574        56.48251        -0.74139
C         67.35824        58.61364        -0.41173
C         66.10864        59.18008         0.23783
C         67.40895        61.44654         0.15233
C         66.12063        60.70547         0.36125
C         67.38596        62.91832         0.02325
C         66.14472        63.61985         0.53296
C         67.36598        65.77947         0.12037
C         66.06441        65.03699        -0.06542
C         67.36621        67.19369         0.35044
C         66.17991        67.87185         0.74344
C         67.40800        69.97370         0.75551
C         66.23207        69.24988         0.95958
C         69.55439        31.58467         0.70087
C         69.47825        32.96989         1.08751
C         68.30020        33.69841         1.01513
C         69.55541        35.83144         1.29798
C         68.30211        35.13828         1.25966
C         69.56499        37.25555         1.19240
C         68.33719        37.96046         1.07739
C         69.62520        40.14274         1.07143
C         68.36314        39.40983         0.67354
C         69.62380        41.56453         1.12955
C         68.37061        42.28143         1.00274
C         69.58883        44.47794         1.17230
C         68.33339        43.72329         0.92691
C         69.71163        45.88429         0.60847
C         68.40847        46.64593         0.56763
C         69.72313        48.71045         0.41687
C         68.43501        48.01106         0.40789
C         69.75776        50.16161         0.08828
C         68.47911        50.86891        -0.22557
C         69.75343        52.77689        -1.31258
C         68.49226        52.11502        -1.00548
C         69.77930        54.31085        -1.26582
C         68.52164        55.06719        -1.09388
C         69.81644        57.14415        -0.78773
C         68.55443        56.42406        -0.83587
C         69.80752        58.56792        -0.73381
C         68.56617        59.27973        -0.43748
C         69.76909        61.43208        -0.57174
C         68.63106        60.72244        -0.25831
C         69.72092        62.92326        -0.84775
C         68.51207        63.62493        -0.27515
C         69.79838        65.78986        -0.20497
C         68.54314        65.08576        -0.13325
C         69.81032        67.21210        -0.06877
C         68.59159        67.91812         0.21377
C         69.84249        70.08000         0.20774
C         68.60329        69.33376         0.38974
C         69.87282        71.49034         0.29754
C         71.97858        31.59268         0.97442
C         70.74580        30.92104         0.64297
C         71.98021        32.86828         1.42164
C         70.70387        33.61914         1.70828
C         71.97381        35.80725         1.37643
C         70.77360        35.10688         1.41205
C         71.99419        37.20885         1.26609
C         70.81734        37.95356         1.20419
C         72.02689        40.13146         1.44127
C         70.82773        39.42143         1.22276
C         72.03781        41.52191         1.47353
C         70.85437        42.25489         1.32206
C         72.12103        44.50965         1.14174
C         70.87264        43.73916         1.39207
C         72.13373        45.85211         1.07872
C         70.86844        46.66941         1.27758
C         72.15557        48.83842         0.71331
C         70.91080        48.08631         0.72184
C         72.25733        50.06923         0.15511
C         71.05631        50.69175        -0.44894
C         72.28287        52.85506        -1.25728
C         71.05403        52.03479        -1.12523
C         72.27690        54.19191        -1.13263
C         71.03859        54.93385        -0.68088
C         72.24289        57.16957        -0.91610
C         71.04794        56.44219        -0.85118
C         72.23334        58.56136        -0.93225
C         71.02885        59.28488        -0.81685
C         72.19155        61.49252        -0.81507
C         71.02343        60.74428        -0.77946
C         72.19066        62.90298        -0.63738
C         71.02612        63.63603        -0.56602
C         72.21834        65.81969        -0.49183
C         71.01948        65.08107        -0.41718
C         72.22699        67.20284        -0.38275
C         71.03914        67.93104        -0.17653
C         72.24016        70.12666        -0.24809
C         71.04936        69.38325        -0.07181
C         72.24546        71.51079        -0.15284
C         71.05385        72.19756         0.12123
O         70.08660        44.27925         2.53578
O         52.24608        50.42173         0.35813
O         54.06425        50.50562        -2.73955
O         46.36763        46.51383         0.85815
O         69.84568        53.61090        -2.52637
O         65.27381        42.13426         2.43796
O         47.26378        53.93128         3.02930
O         69.15665        51.00806         1.12404
O         67.14212        53.53142        -2.49579
O         50.58522        43.97172        -3.32669
O         62.08774        65.21333         2.43831
O         57.76267        59.31420        -1.58861
O         71.09226        50.79430        -1.91653
O         50.42493        46.53853        -3.04727
O         51.21672        52.90813        -1.86086
O         64.03536        50.86056         1.18480
O         55.07636        55.07522        -2.12534
O         54.88350        56.10136         1.58542
O         66.92189        61.09093         1.53817
O         49.59313        57.93494         0.16120
O         46.70728        51.19947         2.70760
H         46.92673        51.98298         3.26887
O         57.00744        50.61117        -3.27426
H         56.56258        51.25604        -3.87509
O         60.07451        62.32150         2.59033
H         60.31069        63.14090         3.07674
O         49.93472        49.59820         1.25763
H         50.88486        49.45912         1.48119
O         68.38589        39.37804        -0.81298
H         68.34709        40.30881        -1.12157
O         43.69287        51.38893         3.04816
H         44.41175        50.72619         3.20010
O         65.65570        43.49805        -0.90886
H         66.06271        44.26819        -1.38056
O         45.27383        49.23378         2.25340
H         46.13724        48.76762         2.28547
O         53.64195        48.02339         0.39309
H         54.54162        47.76496         0.69168
O         63.44876        63.75862        -1.45784
H         63.36822        62.85276        -1.82765
O         66.14845        58.64311         1.60056
H         66.67439        59.28581         2.13334
O         70.07139        45.68069        -0.80340
H         70.29715        46.55984        -1.17938
O         65.02269        66.92268         2.57283
H         64.30222        66.31384         2.84568
O         70.90411        54.69927         0.75943
H         71.60419        55.20851         1.21910
O         54.63272        61.83793        -0.87293
H         53.80102        62.35705        -0.88442
O         55.50666        58.46644         2.31892
H         55.33450        57.55808         2.66100
O         67.24405        57.49421        -2.48526
H         67.25810        56.62399        -2.94058
O         60.49050        43.82090         2.08631
H         60.75738        44.70259         2.42674
O         62.40879        52.75267        -2.78181
H         61.70151        53.29369        -3.19448
O         70.51397        33.53118         3.16821
H         70.50097        32.57811         3.39899
O         57.88614        43.55565         1.07877
H         58.62993        43.45040         1.72152
O         66.26060        63.75379         1.96994
H         66.45864        62.85172         2.31786
O         52.62498        56.65724         2.68137
H         53.54691        56.37197         2.88399
O         48.44267        50.98215        -1.81074
H         49.06507        51.69773        -2.06857
O         57.87766        44.50693        -2.48640
H         57.20267        45.00870        -2.99095
O         61.13105        56.78826        -2.75879
H         60.91924        57.72890        -2.94024
O         64.80536        44.71546         2.48435
H         64.86999        43.81758         2.89680
O         65.74858        34.67212         2.85890
H         66.58865        34.20907         3.06659
O         67.30683        45.68700        -1.29872
H         68.25286        45.44796        -1.46975
O         69.54957        63.00822        -2.31107
H         69.43823        63.95686        -2.53564
O         65.91707        64.93150        -1.50496
H         65.00587        64.59437        -1.70297
O         55.13704        52.34714         0.39608
H         54.38702        52.56213         0.98896
O         55.82761        52.77310        -3.15307
H         55.56561        53.73096        -3.11960
O         63.45772        54.84944         0.89355
H         62.76676        55.44729         1.25132
O         70.62568        46.84256         2.68582
H         70.50246        45.94051         3.07418
O         58.33997        52.54537         0.77285
H         58.99823        51.98426         1.23699
O         58.13346        48.16280         1.39867
H         58.84634        47.69159         1.88030
O         45.70533        51.17976        -0.85105
H         46.47787        51.28747        -1.45524
O         59.21963        42.30530        -2.15164
H         58.70569        42.97089        -2.66992
O         61.74631        37.52144         2.72874
H         62.49123        37.12992         3.23372
H         37.53772        49.06159        -0.16269
H         35.45806        50.37532        -0.11841
H         37.67477        53.94821         0.80177
H         35.52769        52.83244         0.35746
H         39.16232        48.13264        -0.43406
H         39.34546        54.80607         1.02042
H         41.23174        46.88749        -0.65690
H         41.46460        55.86765         1.53501
H         44.89519        44.83371        -1.63889
H         42.85245        46.06951        -1.27701
H         45.16448        57.82001         2.38755
H         43.05399        56.62852         2.22279
H         46.58483        43.70165        -1.31430
H         46.97555        58.58504         3.12336
H         48.58323        42.55542        -2.10910
H         49.00997        59.88928         2.80443
H         52.41255        40.45924        -1.33611
H         50.36212        41.59234        -1.94530
H         52.41327        62.34425         1.05753
H         50.35522        61.06035         1.50704
H         54.02458        39.54722        -1.05386
H         54.13030        63.20161         1.71181
H         56.10050        38.37330        -0.65623
H         56.23832        64.36489         1.84835
H         59.74242        36.25230         0.18774
H         57.78221        37.44207        -0.64164
H         59.87627        66.66247         1.54432
H         57.78740        65.44931         1.34568
H         61.19681        35.27268         1.12438
H         61.51002        67.71689         0.80909
H         63.32445        34.10006         1.16354
H         63.63817        68.93230         0.71035
H         67.07035        32.16496        -0.00145
H         64.96139        33.35748         0.23934
H         67.38663        71.05747         0.92921
H         65.34232        69.78757         1.31468
H         68.63619        31.05830         0.40456
H         68.95145        72.05089         0.50418
H         72.92504        31.04669         0.84961
H         70.78133        29.87202         0.31887
H         72.93311        33.33438         1.71037
H         72.93432        35.28118         1.45871
H         72.97204        37.70848         1.25574
H         72.97318        39.59598         1.59099
H         72.98945        42.04268         1.64678
H         73.05862        43.95290         0.99545
H         73.09071        46.36734         0.90702
H         73.04792        48.37452         1.15629
H         73.22245        50.59361         0.11329
H         73.20750        52.32861        -1.53653
H         73.21644        54.74338        -1.28102
H         73.20990        56.65079        -0.96670
H         73.19351        59.08810        -1.00622
H         73.16730        60.99802        -0.91199
H         73.16800        63.39487        -0.53513
H         73.17328        65.30486        -0.66059
H         73.19125        67.72197        -0.45759
H         73.18500        69.61362        -0.47112
H         73.18184        72.06768        -0.29557
H         71.05404        73.29395         0.19356
