         236
 CSIRO Nanostructure Databank - Neutral Graphene Oxide Data Set
C        -10.63443         0.54862        -1.79160
C         -9.56037         1.34504        -1.19840
C         -8.44952         0.62459        -0.58411
C         -7.52582         1.30825         0.25176
C         -6.59546         0.52202         0.93877
C         -4.75132         1.61272         1.35205
C         -3.72580         0.78886         1.01261
C         -2.47426         1.43928         0.60384
C         -1.28567         0.76494         0.62328
C         -0.01067         1.56719         0.71800
C          1.25239         0.79416         0.39663
C          2.55637         1.56710         0.60765
C          3.70346         0.67877         0.17264
C          4.80822         1.26519        -0.57744
C          6.14053         0.51397        -0.57424
C          7.36369         1.32171        -0.66601
C          8.58352         0.73732        -0.21371
C          9.83143         1.43227        -0.44500
C         11.07834         0.69166        -0.63529
C         -9.63250         2.70689        -1.12037
C         -8.61928         3.52419        -0.41594
C         -7.48503         2.80266         0.33980
C         -6.20831         3.56938         0.49028
C         -4.88106         3.08747         1.14500
C         -3.65470         3.59922         0.43155
C         -2.51907         2.87611         0.28173
C         -1.31772         3.55537        -0.36590
C         -0.01707         2.90285         0.02057
C          1.15958         3.54276        -0.27643
C          2.45320         2.84867        -0.21928
C          3.49747         3.31194        -0.99403
C          4.81075         2.68580        -0.98156
C          6.01377         3.24124        -1.40227
C          7.29276         2.66767        -1.04108
C          8.47298         3.49188        -0.79522
C          9.74121         2.80134        -0.68061
C         -8.40084         4.89965        -0.88320
C         -7.28634         5.59508        -0.51867
C         -6.21138         4.90892         0.16725
C         -4.95999         5.68678         0.40542
C         -3.73113         4.99044        -0.11956
C         -2.44654         5.75639         0.00912
C         -1.25084         5.07000        -0.15644
C         -0.02200         5.78090        -0.32897
C          1.14483         4.96460        -0.66930
C          2.21508         5.40059        -1.41810
C          3.18227         4.40786        -1.94220
C          5.24602         6.60507        -1.66125
C          6.18482         5.57053        -1.42206
C          7.22774         5.71547        -0.47905
C          8.38772         4.84535        -0.45747
C         -7.00998         7.00855        -0.99790
C         -6.27776         7.87205         0.08342
C         -4.96777         7.16795         0.42719
C         -3.67822         7.87173         0.29140
C         -2.46687         7.18187         0.14055
C         -1.20748         7.88161         0.12133
C         -0.00325         7.21433        -0.18670
C          1.24820         8.01570        -0.17358
C          2.41444         7.68776        -0.82344
C          3.73943         8.35313        -0.56513
C          5.01849         7.56431        -0.65198
C          6.04427         7.72134         0.32814
C          7.17014         6.87774         0.33482
C         -6.01386         9.26767        -0.45462
C         -4.87306         9.94005        -0.24937
C         -3.76545         9.33752         0.59368
C         -2.42828        10.00913         0.56464
C         -1.23622         9.30028         0.47528
C         -0.00586         9.90880         0.83218
C          1.23132         9.27041         0.59437
C          2.41587         9.88160         0.99699
C          3.71462         9.44606         0.48642
C          4.90327         9.64851         1.34112
C          5.96461         8.81592         1.28455
C        -10.54779        -0.78939        -1.93770
C         -9.24499        -1.51276        -1.70474
C         -8.37350        -0.78371        -0.70578
C         -7.33018        -1.49443        -0.10139
C         -6.32041        -0.81719         0.63355
C         -5.05908        -1.46914         0.98709
C         -3.77367        -0.71123         1.40881
C         -2.52151        -1.40472         0.90133
C         -1.21633        -0.68931         1.07958
C         -0.09058        -1.44624         0.32218
C          1.24579        -0.69087         0.37774
C          2.47314        -1.37756         0.96455
C          3.73406        -0.66133         0.51669
C          4.97741        -1.38316         0.51655
C          6.16343        -0.78435         0.10596
C          7.43044        -1.41170         0.29212
C          8.54011        -0.54840         0.34277
C         10.36386        -1.61660        -0.00940
C         11.29184        -0.66559        -0.60348
C         -9.36584        -3.00548        -1.46638
C         -8.43085        -3.71173        -0.76997
C         -7.47432        -2.97855         0.14613
C         -6.08131        -3.59842         0.18088
C         -4.98516        -2.82543         0.80619
C         -3.72934        -3.56114         1.09730
C         -2.49258        -2.86820         0.55984
C         -1.18634        -3.56562         0.94547
C          0.00017        -2.90073         0.76177
C          1.28982        -3.59491         0.72006
C          2.49550        -2.84197         0.59631
C          3.76064        -3.56411         0.74193
C          5.06980        -2.78089         0.96346
C          6.38631        -3.45618         0.94657
C          7.56361        -2.83253         0.49722
C          8.75139        -3.56713         0.01983
C          9.99786        -2.89541        -0.36133
C         -8.41766        -5.15911        -0.64888
C         -7.33869        -5.84210        -0.12073
C         -6.07102        -5.11845         0.16454
C         -4.98021        -5.78381         0.84218
C         -3.74838        -5.06068         1.15972
C         -2.46364        -5.81038         1.12369
C         -1.23445        -4.99719         1.29042
C          0.14504        -5.78845         1.13958
C          1.32149        -4.99861         0.78231
C          2.59678        -5.79046         0.63327
C          3.73168        -4.92534         0.10366
C          4.82584        -5.55668        -0.71983
C          6.17354        -4.91867        -1.05259
C          7.40285        -5.65401        -0.58050
C          8.62970        -4.90300        -0.36245
C         -7.31653        -7.27314         0.04238
C         -6.22779        -7.95209         0.55618
C         -5.05711        -7.20724         1.07204
C         -3.69442        -7.96263         1.22144
C         -2.44330        -7.17735         1.12376
C         -1.14262        -7.98265         1.25031
C          0.04992        -7.18651         0.80662
C          1.08836        -7.78467        -0.03250
C          2.37696        -7.02465        -0.23800
C          3.58429        -7.79414        -0.60241
C          4.80500        -7.04808        -0.90556
C          6.14364        -7.80228        -0.84661
C          7.35277        -7.02229        -0.49732
C         -6.14757        -9.39139         0.56101
C         -4.95721       -10.05816         0.68292
C         -3.68932        -9.38594         0.82933
C         -2.49407       -10.01480         0.53977
C         -1.22883        -9.33834         0.57010
C         -0.11144        -9.94993         0.04063
C          1.13164        -9.25620        -0.17634
C          2.32255        -9.89507        -0.45616
C          3.57115        -9.18252        -0.62952
C          4.83931        -9.88911        -0.61806
C          6.03877        -9.24380        -0.57439
O         -3.73409        -4.18017         2.40146
O         -1.50673         3.36561        -1.81389
H         -0.71009         3.71416        -2.26954
O          5.26227         0.46629        -1.73514
O         -0.46698        -5.40776         2.43917
O          6.22777        -3.91127        -1.73343
O         -2.63324        -3.06426        -0.88450
H         -1.91549        -2.53508        -1.31849
O         -4.22093         9.44173         1.99222
H         -3.68562         8.81814         2.52749
O          3.01815        -6.28393         1.94314
H          2.23867        -6.29568         2.53888
O         -4.53186        -7.66117         2.36367
O          1.35799        -6.96784        -1.26437
O          4.30787        -3.32718         2.11611
O          4.61875         6.70229        -2.84932
H          4.72006         5.86416        -3.35843
O          2.32501        -1.27031         2.40729
H          2.97546        -1.89319         2.80646
O         -3.98868         4.86928        -1.56437
H         -3.24018         4.34415        -1.94596
O         -4.94031         6.37114         1.69320
O         -1.01830        -8.24565         2.68582
H         -0.99430        -7.36682         3.13077
O          6.40088        -4.64860         1.58049
H          5.55291        -4.70436         2.09524
O         -3.69892        -0.73818         2.87303
H         -4.53246        -0.33603         3.20688
O         -8.50986        -1.40466        -2.98315
H         -9.05286        -1.84018        -3.67369
O         -6.18465         6.93656        -2.17297
H         -5.49983         6.23906        -2.04845
O          6.05574         4.41286        -2.19478
O          3.61144         4.41285        -3.09842
O         -7.11620         7.94865         1.24594
H         -6.66880         7.44732         1.96446
O          2.76671         1.91192         1.98898
H          1.87447         2.10689         2.37700
O          3.70657        -4.85643        -1.34751
O         -5.86747         1.08571         2.00827
O         -4.86770         3.67747         2.47716
H         -5.65688         3.33788         2.95153
O          0.10126         1.87039         2.16154
H         -0.14719         1.02740         2.63094
O         -0.87880        -0.66345         2.51036
H         -1.73765        -0.68818         3.00215
O         -0.50744        -1.48689        -1.06679
H          0.06567        -0.85117        -1.56502
O         -8.61688         3.38813         1.05286
O          2.40352         6.70490        -1.83341
O          9.64722        -1.02555         1.05372
O         -8.03503        -2.95386         1.42446
O          5.50844        -7.43728        -2.12001
O          3.86097         9.75211        -0.97129
O          1.40124         0.07010        -0.86824
O         -5.63874        -4.27469        -1.00419
H         12.23443        -1.04727        -1.02763
H         11.90349         1.30242        -1.03878
H         10.66322         3.39594        -0.77574
H          9.30353         5.30347        -0.04831
H          7.98035         7.07301         1.05141
H          6.81163         8.95338         1.97289
H          4.85731        10.44373         2.10018
H          2.37262        10.76054         1.65738
H         -0.01032        10.91478         1.27650
H         -2.38844        11.06536         0.87235
H         -4.73750        10.95298        -0.65859
H         -6.82387         9.73252        -1.03857
H         -7.96557         7.51069        -1.28652
H         -9.15022         5.35321        -1.54978
H        -10.46305         3.23875        -1.61092
H        -11.56109         1.07668        -2.06579
H        -11.39352        -1.35359        -2.36208
H        -10.13007        -3.54278        -2.05537
H         -9.30295        -5.72894        -0.97504
H         -8.19165        -7.84848        -0.29739
H         -7.06650        -9.96037         0.35661
H         -4.94226       -11.15281         0.57455
H         -2.51289       -11.05568         0.18002
H         -0.18780       -10.99476        -0.30018
H          2.34256       -10.99430        -0.50468
H          4.80937       -10.98096        -0.48533
H          6.96178        -9.80714        -0.37177
H          8.23495        -7.58100        -0.14696
H          9.56083        -5.43100        -0.62679
H         10.60786        -3.41780        -1.11440
