         276
 CSIRO Nanostructure Databank - Neutral Graphene Oxide Data Set
C        -11.25767         0.71631         0.26696
C        -10.07384         1.48109         0.03314
C         -8.78385         0.71040        -0.07320
C         -7.63323         1.51528        -0.60989
C         -6.40914         0.79091        -1.04989
C         -5.09110         1.50149        -0.89873
C         -3.86050         0.66705        -0.53890
C         -2.55328         1.47554        -0.90227
C         -1.24705         0.66110        -1.07718
C          0.08946         1.24642        -0.68432
C          1.35068         0.51443        -1.04651
C          2.62990         1.30501        -1.26808
C          3.93903         0.55153        -1.14041
C          5.22827         1.31487        -1.02847
C          6.51609         0.64631        -1.52472
C          7.79916         1.37837        -1.02666
C          9.00977         0.68241        -0.46840
C         10.14926         1.49501         0.19415
C         10.83672         0.76589         1.32913
C        -10.02247         2.88467         0.14937
C         -8.80080         3.57128         0.25146
C         -7.57336         2.69543         0.34045
C         -6.26658         3.46259         0.40108
C         -5.04720         2.83993        -0.22450
C         -3.73279         3.41295         0.26056
C         -2.44467         2.68999         0.01841
C         -1.14240         3.44703        -0.05699
C          0.12888         2.72604        -0.38234
C          1.28223         3.51519        -0.94092
C          2.60139         2.80324        -1.18330
C          3.87501         3.57858        -0.92984
C          5.18275         2.84492        -0.96465
C          6.43753         3.64752        -1.20516
C          7.74314         2.89485        -0.97221
C          8.75954         3.62320        -0.19761
C          9.61363         2.82399         0.75744
C         -8.71651         4.99749         0.41106
C         -7.53959         5.70226         0.56735
C         -6.26047         4.95655         0.58493
C         -4.98108         5.69513         0.29795
C         -3.71839         4.91074         0.22377
C         -2.41444         5.53635         0.60545
C         -1.23282         4.94842        -0.11537
C          0.01207         5.73716        -0.31941
C          1.23936         5.01209        -0.83849
C          2.52907         5.79105        -0.98925
C          3.83853         5.07047        -1.18253
C          5.14221         5.86131        -1.15449
C          6.40450         5.10970        -0.93262
C          7.53276         5.75173        -0.47604
C          8.67240         4.97901        -0.04264
C         -7.55396         7.22247         0.76142
C         -6.18600         7.93267         0.78480
C         -4.91676         7.16373         0.62651
C         -3.65761         7.70263         1.26258
C         -2.37610         6.94611         1.06817
C         -1.05294         7.68157         1.04348
C          0.15815         7.02550         0.43528
C          1.43493         7.86161         0.27720
C          2.53749         7.30208        -0.69615
C          3.89269         7.81339        -0.13408
C          5.11628         7.34815        -0.93244
C          6.43340         8.10563        -0.70277
C          7.56620         7.21901        -0.10791
C         -6.07149         9.30225         1.37829
C         -4.88534         9.89373         1.63569
C         -3.60448         9.12529         1.71246
C         -2.25053         9.86123         1.86322
C         -1.02708         9.16786         1.23285
C          0.06205         9.89190         0.87101
C          1.18615         9.36295        -0.03269
C          2.57720         9.99694         0.13528
C          3.76316         9.32080         0.07186
C          5.04682         9.97645         0.31854
C          6.23689         9.38512         0.08457
C        -11.25398        -0.65242         0.27908
C        -10.14976        -1.49409        -0.30032
C         -8.92174        -0.66579        -0.70441
C         -7.73654        -1.41724        -1.25353
C         -6.40696        -0.70010        -1.35554
C         -5.12910        -1.49621        -1.43127
C         -3.85641        -0.83387        -0.94026
C         -2.55472        -1.54817        -1.14343
C         -1.26951        -0.80336        -1.34133
C          0.00725        -1.60591        -1.48342
C          1.27999        -0.80921        -1.81961
C          2.62274        -1.63268        -1.66842
C          3.94177        -0.89990        -1.57158
C          5.22759        -1.66497        -1.28748
C          6.55090        -0.88755        -1.25263
C          7.76717        -1.58847        -0.70573
C          8.99918        -0.81486        -0.27654
C          9.95758        -1.46447         0.72354
C         10.75426        -0.54823         1.56951
C         -9.69088        -2.68522         0.50900
C         -8.62991        -3.42179         0.07741
C         -7.85612        -2.99654        -1.20686
C         -6.47176        -3.78439        -1.30924
C         -5.14079        -3.06411        -1.74420
C         -3.80757        -3.76545        -1.28060
C         -2.49944        -3.04412        -1.21978
C         -1.27695        -3.47659        -0.34350
C         -0.02006        -3.05251        -1.11838
C          1.28167        -3.78812        -0.95497
C          2.58758        -3.09388        -1.23983
C          3.75424        -3.64274        -0.39159
C          5.12261        -3.04909        -0.71689
C          6.27103        -3.60455         0.08694
C          7.59141        -2.91802         0.00987
C          8.89866        -3.71039         0.24867
C          9.70961        -2.82793         1.15637
C         -8.49517        -4.78128         0.59417
C         -7.56136        -5.65846         0.15826
C         -6.43600        -5.15539        -0.68721
C         -5.13208        -5.70150        -0.17956
C         -3.86212        -4.98458        -0.41734
C         -2.58307        -5.69964        -0.03018
C         -1.31686        -4.93642         0.06491
C         -0.02259        -5.63070         0.36579
C          1.27015        -4.98602        -0.03217
C          2.50737        -5.84322        -0.01499
C          3.80084        -5.19100        -0.37045
C          5.12245        -5.91505        -0.10877
C          6.16245        -5.03654         0.59967
C          7.48456        -5.76677         0.75388
C          8.67604        -5.11852         0.74048
C         -7.62900        -7.13651         0.51373
C         -6.28247        -7.83810         0.68353
C         -5.03591        -7.13501         0.27453
C         -3.82124        -7.92350        -0.16930
C         -2.51545        -7.18749        -0.23971
C         -1.16837        -7.88603        -0.03790
C         -0.15065        -7.10862         0.82413
C          1.14364        -7.86224         0.42792
C          2.38504        -7.05410         0.89776
C          3.68669        -7.83504         1.04476
C          4.97973        -7.03258         0.95960
C          6.22689        -7.88599         0.91644
C          7.41929        -7.21567         0.89774
C         -6.22580        -9.32573         0.73246
C         -5.09064       -10.01531         0.53746
C         -3.81035        -9.45021        -0.04143
C         -2.53559        -9.94132         0.61439
C         -1.31400        -9.30605         0.50225
C         -0.10394        -9.97631         0.84730
C          1.15811        -9.33321         0.78940
C          2.36220       -10.01739         0.88057
C          3.66557        -9.33123         1.01540
C          4.95722       -10.01233         0.77541
C          6.13011        -9.33046         0.80126
O         -2.30479         5.80699         2.01348
O          8.92555         0.98844        -1.89664
O          0.83913         0.45269         0.30394
O         -8.69270        -0.74213        -2.12789
O         -6.62365        -5.00713        -2.10411
O         -4.62313        -4.74002         0.81173
O          6.73296        -2.72622         1.17216
O          3.41950        -1.30898        -2.85105
O          5.55131        -4.91982         1.93606
O          5.35576        -2.85615        -2.12531
O          7.34271         3.35921        -2.30013
O         -0.13226         6.88654         1.86599
O          5.05886         6.84281        -2.28260
O          3.68457        -8.56482         2.31584
O         -3.18991        -1.45794         0.19808
O         -0.19802         3.03868         0.99844
O         -5.67282        -0.84717        -2.61088
O         -0.25591        -2.65023        -2.48768
O         -5.45822         7.93229        -0.49609
O         -3.26600        -7.50535        -1.45440
O          4.63288         0.69199         0.14174
O         -7.70980         1.94450         1.63842
O         10.25819        -1.36529        -0.75110
O          1.99753        -3.98788        -2.20458
O          4.57145         3.27357         0.30769
O          3.06460        -5.99517        -1.34637
O         -1.02888         5.68632        -1.35239
O         -2.81400        -3.84175        -2.36938
O         -2.15250        -5.17694         1.25820
O         -3.03829         2.75030         1.34238
O          3.05198         5.47807        -2.32307
O          7.52642        -1.54350        -2.12969
O          4.24594         7.16704         1.12517
O         -8.31530         0.61078         1.33953
O         -0.45886        -7.94375        -1.32903
O          4.98793        -6.25791         2.22687
O         -7.29546         1.54694        -1.98145
O          1.01421        -7.81360        -1.03618
O         -4.34596         5.41660        -0.99086
O          0.90066         4.31977        -2.08107
O         -3.79462         8.03676         2.68488
O         -5.38129        -7.26561         1.68899
O         -5.03658         2.71244        -1.67940
O         -1.28798         0.14406        -2.45267
O          0.71682        -4.75297         1.28532
O          2.59530         2.11884        -2.47271
O         -6.05768         4.03303         1.72132
O         -8.67455        -3.40090        -2.25559
O          7.63472         7.33224         1.35320
H          3.62815         7.49907         1.82384
O         -8.29885        -7.82094        -0.55572
H         -8.91830        -7.20182        -0.99439
O          6.75883         6.32485         1.93023
H          5.84481         6.69669         1.76804
O          6.92471         8.53914        -1.99274
H          6.47852         7.98797        -2.67849
O          0.65106         9.65227        -1.33148
H          1.27793         9.30126        -2.00859
O         -4.04571         0.63247         0.89063
H         -3.40081         0.00747         1.29402
O         -2.72928         2.11734        -2.17508
H         -2.53225         1.47455        -2.89434
O         -0.48604        -7.18950         2.19015
H          0.08234        -6.54429         2.66989
O        -10.77778        -2.02709        -1.48346
H        -10.06405        -2.53626        -1.99807
O          1.17473        -0.42888        -3.18748
H          1.01910        -1.23695        -3.72190
O         -2.37194        11.18114         1.33762
H         -2.39513        11.13566         0.35955
O         -8.23892         7.50807         1.98895
H         -7.79977         7.02376         2.71858
O         -5.16042        -3.17122        -3.15821
H         -4.24073        -3.14100        -3.50137
O         11.13866         1.79096        -0.80151
H         10.72557         1.64841        -1.68440
O          2.10654        -6.55418         2.22017
H          2.53780        -7.17150         2.85814
O          8.77007         2.47631         1.86981
H          8.42069         3.30068         2.26962
O          2.39336         7.92442        -1.98661
H          2.85987         7.34050        -2.63627
O          3.43707        -3.23847         0.95904
H          4.08787        -3.64468         1.58473
O         -3.73767       -10.02231        -1.37778
H         -3.28797        -9.35761        -1.95232
O          9.52885        -3.88905        -1.03536
H          9.96115        -3.03498        -1.29178
O         -1.23364        -2.70828         0.86274
H         -1.73383        -3.20186         1.55306
O          6.47350         0.80711        -2.94350
H          7.31291         0.44559        -3.30687
O          5.63750        -6.40654        -1.33702
H          4.88603        -6.53200        -1.95938
O          1.99465         7.95461         1.61411
H          1.27507         7.73676         2.26047
H         11.29175        -0.99090         2.42107
H         11.46527         1.39037         1.98183
H         10.47462         3.45132         1.11484
H          9.42633         5.49701         0.56930
H          8.53197         7.66060        -0.45935
H          7.15978         9.93214         0.32954
H          5.02459        10.98207         0.76739
H          2.61574        11.08752         0.29732
H          0.01998        10.98484         1.01494
H         -2.06014         9.97241         2.96325
H         -4.85590        10.94681         1.95301
H         -7.00018         9.88636         1.46248
H         -8.16977         7.68183        -0.05514
H         -9.66467         5.55775         0.39606
H        -10.96585         3.44860         0.21398
H        -12.17615         1.25866         0.54022
H        -12.18396        -1.18335         0.53298
H        -10.34049        -3.08031         1.30719
H         -9.27458        -5.12297         1.29607
H         -8.22956        -7.25274         1.46452
H         -7.14103        -9.85564         1.03629
H         -5.10769       -11.11138         0.63881
H         -2.54134       -10.97905         0.98546
H         -0.15183       -11.03417         1.14671
H          2.34979       -11.11224         0.99522
H          4.95299       -11.10187         0.62873
H          7.07419        -9.88112         0.67201
H          8.36806        -7.77346         0.89326
H          9.59428        -5.71038         0.88058
H          9.83843        -3.08195         2.21799
