         598
 CSIRO Nanostructure Databank - Neutral Graphene Oxide Data Set
C         23.08320        69.80130         2.17832
C         23.05036        71.21501         2.23862
C         21.86585        71.95936         2.32724
C         23.03221        74.12173         2.19837
C         21.87615        73.37700         2.27818
C         25.56255        65.56742         1.52784
C         25.57353        66.96529         1.75113
C         24.34305        67.67292         2.00216
C         25.54691        69.79948         1.76416
C         24.28754        69.06444         2.05531
C         25.55817        71.28730         1.82268
C         24.33055        71.95316         2.32188
C         25.60363        74.15506         1.98641
C         24.33994        73.48795         2.32673
C         27.82753        61.20293         0.74227
C         27.89355        62.68465         1.03691
C         26.75637        63.41735         1.14501
C         27.99574        65.54752         1.42517
C         26.75929        64.85634         1.37241
C         28.02276        66.96149         1.48831
C         26.81534        67.65536         1.69056
C         28.06866        69.86913         1.56717
C         26.85736        69.11106         2.06595
C         28.01566        71.31626         1.57408
C         26.84662        72.01366         1.83893
C         28.04615        74.19021         1.73727
C         26.80901        73.47079         1.86268
C         30.66833        57.16471         0.98853
C         30.51303        58.49959         0.65686
C         29.34505        59.26209         1.04893
C         30.27920        61.32461        -0.05894
C         29.18203        60.54152         0.64281
C         30.46564        62.64010         0.68990
C         29.22441        63.30719         1.22600
C         30.52762        65.54367         1.17499
C         29.25864        64.78712         1.46527
C         30.45389        67.02035         1.07283
C         29.27836        67.70000         1.32305
C         30.48162        69.87899         1.03018
C         29.24423        69.16824         1.32598
C         30.50438        71.36769         1.18476
C         29.18727        72.09351         1.00675
C         30.47086        74.24283         1.41329
C         29.24674        73.54031         1.45205
C         33.02346        52.79673         0.93498
C         32.52855        53.97926         0.41965
C         31.77321        55.01651         1.01512
C         32.65424        56.91448        -0.46915
C         31.72387        56.32709         0.49035
C         32.37671        58.24245        -0.84115
C         31.47712        59.12864        -0.20990
C         32.77690        61.26800        -0.54258
C         31.57022        60.55413        -0.30655
C         32.94238        62.64032         0.13755
C         31.67294        63.44700         0.38881
C         32.88530        65.60076         0.35622
C         31.69844        64.81938         0.60447
C         32.95091        66.99325         0.53020
C         31.77676        67.73473         1.15579
C         32.83611        69.92870         0.36341
C         31.65032        69.19968         0.83520
C         32.91787        71.39039         0.45610
C         31.76420        72.16145         0.96891
C         32.87923        74.46288         1.20572
C         31.72472        73.66668         1.07929
C         35.31991        48.56765         0.19571
C         35.33792        49.96840         0.10325
C         34.21535        50.73048         0.51146
C         35.28695        52.80723        -0.26967
C         34.13828        52.10817         0.31244
C         35.26422        54.23188        -0.61445
C         34.06529        54.93449        -0.81088
C         35.14936        57.07330        -1.14492
C         33.93647        56.34131        -0.87238
C         35.23592        58.50606        -1.25960
C         34.09065        59.31464        -1.39036
C         35.29904        61.35325        -0.94865
C         34.01476        60.66475        -0.94884
C         35.35583        62.77213        -0.69928
C         34.02355        63.48812        -0.55286
C         35.42538        65.56723         0.07948
C         34.13115        64.83373         0.13000
C         35.40276        67.04199         0.03606
C         34.16718        67.70182         0.32152
C         35.36978        69.93401         0.09668
C         34.12095        69.16400         0.09309
C         35.34774        71.31643        -0.00584
C         34.06431        71.96317        -0.04021
C         35.44934        74.24121         1.14109
C         34.16280        74.06187         0.69334
C         37.71437        44.26095         0.27117
C         37.68400        45.65528        -0.07982
C         36.46748        46.40157        -0.01684
C         37.59958        48.50640        -0.74859
C         36.43952        47.79146        -0.17919
C         37.70680        49.96546        -0.61204
C         36.54043        50.68240        -0.27646
C         37.83228        52.82905        -0.32334
C         36.49829        52.10977        -0.37485
C         37.77097        54.30970        -0.70147
C         36.45262        54.98159        -0.83950
C         37.58541        57.05428        -1.68769
C         36.38321        56.34604        -1.16006
C         37.68821        58.51972        -1.55566
C         36.50272        59.20496        -1.26829
C         37.71816        61.33900        -1.58575
C         36.48168        60.63583        -1.20887
C         37.75015        62.83905        -1.35197
C         36.56497        63.44236        -0.72049
C         37.89902        65.62215        -0.66857
C         36.67972        64.84962        -0.30110
C         37.65444        67.05293        -1.10464
C         36.55418        67.74031        -0.31505
C         37.83079        69.99249        -0.35283
C         36.62648        69.18003        -0.00630
C         37.75796        71.47466        -0.21180
C         36.57939        72.12388         0.09713
C         37.84405        74.12011         0.85225
C         36.62226        73.51024         0.63514
C         40.20572        40.09579         1.19273
C         40.16740        41.43285         0.75111
C         38.94307        42.13332         0.63735
C         40.19304        44.22365         0.25442
C         38.89785        43.52074         0.36144
C         40.16404        45.68095        -0.12642
C         38.88232        46.32112        -0.41652
C         40.18012        48.44390        -0.96140
C         38.90306        47.68205        -0.93960
C         40.13134        49.88526        -1.09953
C         38.95753        50.62615        -0.91304
C         40.17892        52.76075        -1.25807
C         39.00181        52.08219        -0.95741
C         40.22660        54.19699        -1.47040
C         38.96423        54.95613        -1.31982
C         40.11191        57.03434        -2.26960
C         38.83589        56.29580        -1.96311
C         40.12801        58.49138        -2.09515
C         38.95819        59.19788        -1.74125
C         40.22186        61.35713        -1.89192
C         39.00176        60.62831        -1.71493
C         40.24378        62.81295        -1.73862
C         39.06600        63.52352        -1.38251
C         40.25727        65.66120        -1.44751
C         39.07648        64.92090        -1.23629
C         40.25092        67.12147        -1.34679
C         38.94904        67.85849        -1.31531
C         40.25881        70.09526        -1.10002
C         38.95512        69.35425        -1.11085
C         40.29052        71.52307        -0.60372
C         39.07829        72.06958         0.08538
C         40.43791        74.15224         0.70108
C         39.13953        73.44840         0.68020
C         42.63148        36.32650         3.13658
C         42.61448        37.45032         2.31246
C         41.42076        38.15358         2.03504
C         42.67789        40.02602         0.98481
C         41.42231        39.40070         1.37865
C         42.64953        41.33365         0.47497
C         41.42732        42.08543         0.42465
C         42.66998        44.12692        -0.18903
C         41.43532        43.44343         0.07997
C         42.66742        45.53634        -0.67139
C         41.38125        46.28957        -0.73672
C         42.67966        48.48155        -0.67054
C         41.37284        47.76600        -0.84184
C         42.68482        49.81854        -1.37259
C         41.39235        50.57358        -1.46215
C         42.63155        52.73285        -1.37938
C         41.43941        52.05334        -1.42521
C         42.68435        54.24153        -1.21349
C         41.40304        54.86788        -1.69927
C         42.70590        57.00039        -2.23366
C         41.43201        56.25401        -2.21765
C         42.66180        58.41819        -2.65035
C         41.34912        59.22155        -2.46396
C         42.69821        61.36803        -2.29036
C         41.42368        60.67748        -2.20771
C         42.71815        62.83709        -2.18507
C         41.46069        63.54020        -1.90968
C         42.66054        65.75137        -1.98629
C         41.44097        64.95328        -1.77283
C         42.71394        67.10412        -1.38964
C         41.45353        67.79723        -1.21707
C         42.71931        69.88989        -0.48040
C         41.51535        69.28245        -1.11655
C         42.82952        71.35129        -0.28565
C         41.60156        72.18143        -0.29459
C         42.90619        74.05009         0.67861
C         41.62219        73.48531         0.43430
C         44.98329        34.20783         5.12867
C         43.80675        34.70285         4.58347
C         45.11233        36.22803         3.18866
C         43.84660        35.73470         3.61293
C         45.17936        37.29882         2.17237
C         43.87640        37.95484         1.72644
C         45.17180        39.94360         1.00118
C         43.92286        39.33736         1.20658
C         45.24183        41.27480         0.35794
C         43.90023        41.99264         0.06257
C         45.11547        44.23175        -0.01813
C         43.86915        43.44899        -0.13775
C         45.18196        45.60202        -0.57509
C         43.94822        46.29302        -0.76933
C         45.13393        48.39132        -1.35418
C         43.91068        47.66505        -0.99060
C         45.15786        49.87792        -1.28017
C         43.96274        50.55799        -1.26735
C         45.20424        52.77653        -1.28182
C         43.90108        52.01505        -1.15319
C         45.13661        54.19969        -1.70891
C         43.95652        54.90559        -1.73280
C         45.16622        57.09880        -2.13175
C         43.92321        56.34384        -2.03881
C         45.19560        58.47903        -2.27212
C         43.96828        59.19299        -2.79486
C         45.19095        61.33834        -2.61622
C         43.89462        60.65324        -2.39520
C         45.18268        62.83944        -2.62953
C         43.91405        63.53501        -2.31101
C         45.21623        65.73212        -1.95610
C         43.95861        65.01719        -2.26756
C         45.17415        67.01666        -1.44961
C         43.93929        67.70877        -1.14610
C         45.23534        69.79448        -0.33122
C         43.98080        69.05492        -0.50211
C         45.26473        71.13349         0.03977
C         44.03501        71.91351         0.08974
C         45.35278        73.92589         0.70289
C         44.09392        73.32353         0.47985
C         46.22537        34.70751         4.71181
C         47.63919        36.15306         3.17778
C         46.30082        35.71536         3.74042
C         47.64361        37.54889         2.60480
C         46.41800        38.09463         2.07155
C         47.71571        39.96820         1.03492
C         46.39426        39.34609         1.46326
C         47.65529        41.49857         0.95575
C         46.45671        42.09545         0.57501
C         47.65974        44.38362         0.48863
C         46.36098        43.57576         0.48641
C         47.64778        45.65049        -0.34169
C         46.43079        46.25981        -0.70517
C         47.69738        48.42600        -1.11011
C         46.45994        47.63331        -1.25166
C         47.67855        49.83455        -1.28401
C         46.42333        50.58882        -1.36677
C         47.67349        52.71258        -1.72410
C         46.42186        51.97643        -1.49886
C         47.68343        54.19548        -1.66867
C         46.41883        54.84960        -2.06105
C         47.71401        57.03787        -1.96635
C         46.43728        56.34386        -2.19119
C         47.71162        58.46966        -2.29637
C         46.44079        59.22514        -2.29890
C         47.73883        61.36101        -2.28834
C         46.48051        60.61184        -2.40166
C         47.74600        62.79562        -2.28395
C         46.50285        63.56553        -2.54803
C         47.78567        65.69011        -1.90668
C         46.50392        65.06209        -2.28294
C         47.75086        67.14099        -1.63135
C         46.43808        67.79487        -1.33483
C         47.77357        69.67385        -0.15539
C         46.46934        69.00654        -0.45310
C         47.75175        71.11428         0.16667
C         46.53316        71.80774         0.26077
C         47.82126        73.87447         0.66428
C         46.56295        73.21265         0.56574
C         48.82645        38.24604         2.51822
C         50.07780        40.24673         1.84407
C         48.91413        39.52058         1.85760
C         50.13505        41.59677         1.30210
C         48.87615        42.21247         0.96082
C         50.16327        44.23991         0.10171
C         48.88060        43.51863         0.27816
C         50.11072        45.66502        -0.28426
C         48.90383        46.31909        -0.55064
C         50.13574        48.46087        -0.89628
C         48.91432        47.74010        -0.89626
C         50.13598        49.86763        -0.98262
C         48.90571        50.53055        -1.19588
C         50.11126        52.73523        -0.96394
C         48.94990        51.96848        -1.49093
C         50.06877        54.23080        -0.99680
C         48.84122        54.91405        -1.48706
C         50.14897        57.07680        -1.48689
C         48.87768        56.36034        -1.65225
C         50.20162        58.44428        -1.72514
C         49.02027        59.20290        -2.19831
C         50.21326        61.38307        -1.96896
C         48.97704        60.68097        -2.11235
C         50.18854        62.80551        -1.99404
C         48.96038        63.51053        -2.08799
C         50.23533        65.67138        -1.71333
C         48.96864        64.97146        -1.92936
C         50.23570        67.15408        -1.65763
C         48.99864        67.82511        -1.23679
C         50.26147        69.78349        -0.41714
C         49.02551        69.08360        -0.68911
C         50.18491        70.95202         0.36964
C         48.99360        71.76251         0.38623
C         50.27954        73.95620         0.42351
C         49.03426        73.19830         0.51570
C         51.32985        42.28268         1.14871
C         52.65588        44.36624         0.36279
C         51.36612        43.76716         0.89016
C         52.66447        45.57588        -0.24105
C         51.40143        46.25281        -0.63754
C         52.66971        48.48991        -0.72501
C         51.41963        47.74321        -0.93480
C         52.63016        49.89872        -0.68981
C         51.38828        50.61602        -0.87734
C         52.57977        52.78396        -0.64198
C         51.39255        52.01014        -0.86683
C         52.53211        54.19523        -0.58361
C         51.35064        54.97005        -0.89757
C         52.50391        57.20455        -0.56582
C         51.35090        56.35065        -1.07695
C         52.69287        58.50711        -1.29969
C         51.50796        59.15595        -1.95817
C         52.67736        61.32085        -1.57118
C         51.45604        60.66021        -1.77764
C         52.72479        62.80213        -1.63740
C         51.45760        63.55357        -1.90025
C         52.69796        65.69225        -1.34938
C         51.43355        65.00493        -1.61327
C         52.76407        67.12892        -1.36881
C         51.51811        67.90366        -1.50755
C         52.66763        70.03706        -1.11972
C         51.51284        69.28541        -0.93651
C         52.70885        71.53090        -1.15055
C         51.43605        72.37695        -1.18544
C         52.65246        74.29496        -0.16817
C         51.41290        73.57043        -0.27048
C         53.93549        46.26014        -0.71595
C         55.06407        48.49197        -0.37717
C         53.89170        47.77670        -0.56795
C         55.07010        49.91855        -0.34213
C         53.83632        50.63749        -0.49772
C         55.04871        52.76123        -0.31462
C         53.82342        52.06063        -0.46766
C         55.06027        54.18473        -0.28791
C         53.77768        54.90613        -0.24266
C         55.11898        57.03772        -0.57339
C         53.80471        56.42932        -0.30202
C         55.15379        58.43160        -1.06925
C         53.88798        59.19764        -1.23421
C         55.15807        61.38907        -1.18999
C         53.90627        60.62249        -1.41342
C         55.08487        62.80753        -0.77046
C         53.75710        63.50191        -0.77815
C         55.06280        65.67311        -0.65465
C         53.85455        64.98713        -1.01448
C         55.14770        67.11575        -0.82637
C         53.95245        67.82156        -1.22532
C         55.24348        70.05069        -1.15729
C         53.93391        69.30605        -1.39077
C         55.17467        71.38909        -0.53108
C         53.99279        72.25866        -0.76336
C         55.08029        74.53960        -0.21322
C         53.90587        73.71320        -0.33324
C         56.27225        50.63153        -0.17249
C         57.48930        52.76791         0.00982
C         56.28372        52.03920        -0.16751
C         57.50684        54.16324        -0.02929
C         56.26852        54.89296        -0.20905
C         57.65644        56.95398        -0.68957
C         56.29293        56.32242        -0.40837
C         57.65049        58.44818        -0.46347
C         56.47017        59.15828        -0.99661
C         57.44097        61.26972         0.00227
C         56.44713        60.65284        -0.93826
C         57.31544        62.73162         0.29313
C         56.18702        63.49458        -0.30529
C         57.33561        65.62791         0.37034
C         56.17376        64.93088        -0.19725
C         57.42305        67.13740         0.15512
C         56.34760        67.79464        -0.59387
C         57.70006        69.93608        -0.33591
C         56.48807        69.23980        -0.88137
C         57.57681        71.32638         0.14781
C         56.23987        71.81798         0.23370
C         57.61001        74.39455         0.28704
C         56.26632        74.02314         0.34151
C         58.72081        54.88158         0.19935
C         59.93720        56.98879         0.40235
C         58.79009        56.26222         0.03619
C         59.96786        58.40392         0.38555
C         58.75431        59.12653         0.00915
C         59.84657        61.23817         0.66367
C         58.73125        60.56513         0.21324
C         59.80099        62.67675         1.01669
C         58.51438        63.45684         0.82542
C         59.80316        65.57976         0.86102
C         58.60359        64.91349         0.64481
C         59.87546        67.02949         0.74970
C         58.74595        67.77819         0.33509
C         60.00277        69.88524         0.54246
C         58.82573        69.17077         0.22699
C         59.98064        71.34887         0.60985
C         58.70899        72.06302         0.52517
C         59.91610        74.15616         0.97928
C         58.70886        73.52707         0.65439
C         61.11347        59.12188         0.75148
C         62.26163        61.26721         1.16705
C         61.10806        60.54106         0.85424
C         62.27887        62.69806         1.25154
C         61.05661        63.43802         1.09300
C         62.26067        65.55658         1.34444
C         61.03670        64.84094         1.11377
C         62.30067        66.97453         1.31222
C         61.09857        67.71784         0.97562
C         62.45789        69.81403         0.93590
C         61.15528        69.12922         0.86465
C         62.45586        71.33691         0.91393
C         61.15378        72.03220         0.91676
C         62.26354        74.09595         1.70535
C         61.12902        73.44808         1.19762
C         63.45442        63.39742         1.54678
C         64.62614        65.50636         2.02051
C         63.46203        64.81526         1.63268
C         64.65410        66.91601         2.06841
C         63.50426        67.66187         1.63295
C         64.74625        69.76061         1.96523
C         63.60744        69.08820         1.52151
C         64.88220        71.23484         1.84996
C         63.68301        72.05948         1.39799
C         64.47584        74.02855         2.72832
C         63.50594        73.43194         1.94815
C         65.77883        67.61514         2.57011
C         66.84043        69.69187         3.32029
C         65.81130        69.01883         2.60095
C         66.85859        71.08638         3.48486
C         65.95239        71.90928         2.66134
C         66.50099        73.84265         4.25086
C         65.74521        73.38573         3.08576
C         67.71353        71.72538         4.40233
C         67.50966        73.07165         4.78478
O         44.60360        52.53831         0.05358
O         48.52754        58.72533        -3.50868
O         56.24771        61.27120        -2.22778
O         37.88727        56.47703        -3.04779
O         56.01678        72.86744         1.12094
O         40.35827        45.29165         1.28222
O         46.46348        55.46551        -3.38842
O         33.20116        69.48636        -1.01679
O         31.33212        71.70099         2.33758
O         28.87811        72.06656        -0.37484
O         37.68903        69.42412         1.01054
O         58.90780        62.99379         2.15208
O         44.56314        36.96697         0.88638
O         38.68855        68.80506        -2.42818
O         56.80204        61.72597         1.24462
O         44.68056        41.31692        -0.98683
O         42.02608        49.93650        -2.65495
O         34.94854        64.94668         1.33538
O         24.50565        72.66139         3.56152
O         32.98082        58.73277        -2.01124
O         64.80862        71.82079         0.51282
O         47.04299        67.97121        -2.65317
O         57.57304        69.66819        -1.78719
O         45.43820        44.18133         1.47504
O         38.68858        55.10198         0.14516
O         50.88020        67.80203        -2.82741
O         37.45718        62.28974        -2.68549
O         50.56466        72.17354        -2.00834
O         41.82135        58.75390        -3.79394
O         32.88064        54.21281        -0.92801
O         48.51919        52.25763        -2.85917
O         45.13629        62.08675        -3.88772
O         45.79737        47.83106        -2.53647
O         47.13269        68.78882         0.84993
O         37.71574        65.20856         0.71274
O         54.73277        69.83633        -2.49578
O         47.88579        39.55958        -0.29468
O         40.70018        56.46178        -3.47771
O         30.11707        62.53737         2.11086
O         30.16791        65.13719         2.55920
O         49.59680        43.44296        -0.99906
O         53.58436        72.10273        -2.17188
O         43.12332        69.12610         0.70436
O         62.72236        70.56937        -0.29626
O         49.78427        53.48490         0.26179
O         41.88140        45.61206        -1.93856
O         34.04211        73.28472        -0.47267
O         38.01809        47.98113        -2.05023
O         52.47143        63.29852        -2.97128
O         46.58895        64.52069        -3.64988
O         39.25125        72.20713         1.53400
O         43.19425        65.65926        -3.34683
O         25.41372        70.56676         0.53604
O         51.46911        46.75586        -2.03009
O         56.00470        58.60602        -2.27420
O         53.70883        55.74383         0.98821
O         66.60564        72.98292         1.95855
O         41.03431        69.94447        -2.32109
O         56.94962        66.56551         1.43739
O         40.90989        72.38912        -1.59587
O         33.57401        63.78452        -1.89846
H         33.65197        62.97199        -2.44163
O         47.85127        44.85371         1.86027
H         46.95148        45.04053         2.21993
O         38.15628        52.77854         1.10466
H         38.71592        53.57145         1.28738
O         51.27059        71.31695         1.10412
H         51.06444        72.11962         1.62782
O         44.25523        59.26574        -4.22357
H         43.39098        59.36936        -4.68715
O         33.45181        62.32629         1.46133
H         32.69300        62.13969         2.05454
O         53.22694        63.33246         0.58976
H         53.91458        63.63938         1.21975
O         54.12470        45.94965        -2.10529
H         53.28610        46.18782        -2.56712
O         52.02243        57.65058         0.74990
H         52.29224        56.94665         1.38896
O         27.16017        61.01239        -0.52185
H         27.75581        61.38504        -1.21200
O         51.17508        44.40016         2.20998
H         51.84526        44.02790         2.82098
O         42.70111        54.49782         0.23523
H         43.40700        53.91069         0.60578
O         32.10642        67.70959         2.59622
H         31.97063        66.79116         2.91864
O         57.93293        56.73169        -2.10664
H         57.28999        57.29170        -2.60903
O         42.79220        48.82912         0.75653
H         42.72086        48.00442         1.28293
O         51.73342        58.96525        -3.41059
H         50.92969        59.27537        -3.88398
O         48.68958        36.03282         4.13369
H         48.85903        35.08463         4.30020
O         37.06954        66.85974        -2.42857
H         37.27464        67.66472        -2.96141
O         29.77753        61.69594        -1.38774
H         29.94880        60.94405        -1.99455
O         26.94072        69.14049         3.53282
H         27.76947        68.68753         3.79828
H         22.98257        75.19970         1.98670
H         25.59670        75.25067         1.87510
H         28.03964        75.27916         1.90618
H         30.45247        75.32206         1.64065
H         32.77402        75.44943         1.68625
H         35.63292        74.93270         1.97711
H         37.85634        75.15583         1.22558
H         40.46962        75.18014         1.09348
H         42.96942        75.07351         1.07818
H         45.39001        74.99294         0.96854
H         47.82969        74.96871         0.77804
H         50.30437        74.92631         0.94849
H         52.60796        75.33354         0.19625
H         55.00544        75.60062        -0.49608
H         57.87222        75.40162        -0.07127
H         59.93089        75.25122         1.08416
H         62.18184        75.15615         1.98824
H         64.25486        75.00522         3.18626
H         66.24576        74.81305         4.70099
H         22.13319        69.25098         2.26338
H         20.90008        71.43430         2.33654
H         20.90847        73.89665         2.22713
H         24.60418        65.02825         1.51145
H         23.41675        67.08686         2.10326
H         27.20883        60.68433         1.51880
H         25.78254        62.91943         1.02625
H         29.92845        56.70318         1.65943
H         28.53232        58.73946         1.57667
H         32.61521        52.37757         1.86677
H         31.19189        54.80115         1.92435
H         34.41714        48.06461         0.57265
H         33.35964        50.20781         0.96324
H         36.75459        43.75067         0.44311
H         35.55615        45.89149         0.32937
H         39.26445        39.59663         1.46778
H         38.00246        41.58947         0.81157
H         41.67765        35.94071         3.52806
H         40.46612        37.74991         2.40562
H         44.94542        33.41415         5.88760
H         42.83391        34.31060         4.91227
H         47.14726        34.29567         5.14713
H         47.86270        35.44914         2.31426
H         49.72941        37.82847         2.98909
H         50.98790        39.83305         2.30643
H         52.27465        41.77568         1.40127
H         53.60866        43.87231         0.61503
H         54.81962        45.85619        -0.16088
H         56.01881        47.95688        -0.26463
H         57.21755        50.08180        -0.05493
H         58.42994        52.21777         0.15932
H         59.60271        54.32875         0.55810
H         60.81120        56.44379         0.79142
H         62.04138        58.57573         0.97753
H         63.20604        60.72569         1.32570
H         64.38651        62.84429         1.73334
H         65.52480        64.93810         2.30157
H         66.62171        67.04671         2.98978
H         67.59092        69.08413         3.84802
H         68.45692        71.12277         4.94346
H         68.11292        73.47503         5.61068
