         204
 CSIRO Nanostructure Databank - Neutral Graphene Oxide Data Set
C        -11.05418         0.65773        -0.66664
C         -9.84005         1.43760        -0.45305
C         -8.61502         0.74801        -0.26917
C         -7.40860         1.43652         0.01476
C         -6.17408         0.72422         0.20849
C         -4.94783         1.45471         0.29459
C         -3.71991         0.75861         0.42738
C         -2.50181         1.44616         0.24201
C         -1.24659         0.71528         0.24653
C         -0.02856         1.38534         0.11878
C          1.21960         0.69163         0.16473
C          2.45167         1.41884         0.14005
C          3.68438         0.71956         0.06556
C          4.90891         1.46042         0.12111
C          6.19238         0.78568        -0.16209
C          7.47506         1.41311         0.16804
C          8.65445         0.71640        -0.01683
C          9.93175         1.42964         0.07041
C         11.14788         0.64973        -0.08743
C         -9.85989         2.83797        -0.35898
C         -8.65884         3.57568        -0.16067
C         -7.42280         2.86574         0.01478
C         -6.20002         3.58915         0.11167
C         -4.96386         2.87809         0.19713
C         -3.73282         3.58763         0.16709
C         -2.52654         2.85444         0.08343
C         -1.29172         3.59499        -0.18166
C          0.01168         2.83334        -0.15183
C          1.24508         3.58128         0.13243
C          2.45516         2.85706         0.21903
C          3.68460         3.57075         0.35239
C          4.90814         2.83650         0.31540
C          6.17054         3.55892         0.58058
C          7.47316         2.82071         0.63727
C          8.77914         3.63168         0.62602
C          9.97437         2.78390         0.25182
C         -8.64341         4.99308        -0.16255
C         -7.43773         5.72353        -0.05623
C         -6.19555         5.01109         0.06164
C         -4.96111         5.72726         0.10765
C         -3.72636         5.02404         0.14368
C         -2.48871         5.74439         0.18026
C         -1.26635         5.03908         0.07710
C         -0.03219         5.71053         0.21594
C          1.22272         4.98958         0.24294
C          2.46162         5.69592         0.40656
C          3.68826         4.98691         0.45900
C          4.94031         5.73430         0.47493
C          6.16856         5.02813         0.39360
C          7.37028         5.68924         0.07254
C          8.61453         4.88101        -0.27100
C         -7.40825         7.14601        -0.10443
C         -6.20008         7.85941        -0.05696
C         -4.95637         7.15439         0.05422
C         -3.72483         7.87045         0.08959
C         -2.48082         7.17851         0.20821
C         -1.24648         7.89258         0.28791
C         -0.04328         7.11645         0.44877
C          1.20004         7.69755         0.81680
C          2.43884         7.11053         0.61345
C          3.69730         7.95699         0.76452
C          4.93901         7.14790         0.40762
C          6.14355         7.80680         0.07745
C          7.33662         7.07499        -0.11507
C         -6.16284         9.29492        -0.14406
C         -4.97498         9.97850        -0.15067
C         -3.71927         9.29193        -0.04238
C         -2.48326         9.96684        -0.13820
C         -1.24933         9.31737         0.02589
C         -0.03358        10.05779        -0.31982
C          1.19178         9.78220         0.22682
C          2.53131        10.09303        -0.22154
C          3.64564         9.31260         0.02015
C          4.92324         9.88489        -0.35761
C          6.10430         9.22123        -0.24188
C        -11.06272        -0.69448        -0.78186
C         -9.81335        -1.48150        -0.79413
C         -8.55789        -0.70374        -0.49293
C         -7.41238        -1.42577         0.12748
C         -6.12871        -0.70813         0.24889
C         -4.96039        -1.42891         0.49217
C         -3.72806        -0.66542         0.91753
C         -2.44318        -1.40726         0.67613
C         -1.26376        -0.72686         0.42433
C         -0.00763        -1.44662         0.31605
C          1.21652        -0.73293         0.18817
C          2.45773        -1.43695         0.06174
C          3.68487        -0.71607        -0.02148
C          4.89884        -1.44509        -0.16552
C          6.17826        -0.72627        -0.36346
C          7.45329        -1.42577        -0.21339
C          8.64347        -0.72685        -0.18659
C          9.90434        -1.46957        -0.21516
C         11.13474        -0.70635        -0.20043
C         -9.79691        -2.95231        -0.61686
C         -8.63811        -3.64165        -0.33805
C         -7.42951        -2.91695         0.14342
C         -6.13179        -3.61158         0.23293
C         -4.93777        -2.87781         0.47899
C         -3.71918        -3.59623         0.67463
C         -2.43936        -2.86541         1.06899
C         -1.20243        -3.60502         0.60676
C         -0.00302        -2.86881         0.33476
C          1.21803        -3.57333         0.10949
C          2.45051        -2.85830        -0.02332
C          3.67001        -3.56540        -0.22998
C          4.88817        -2.83912        -0.25273
C          6.15972        -3.53469        -0.56707
C          7.41520        -2.91520         0.00778
C          8.68979        -3.62811        -0.37923
C          9.90837        -2.84617        -0.32912
C         -8.54759        -5.07292        -0.37159
C         -7.36309        -5.74802        -0.10213
C         -6.12503        -5.01850         0.18114
C         -4.92270        -5.71100         0.45719
C         -3.71702        -4.99985         0.67458
C         -2.43198        -5.74879         1.03328
C         -1.19691        -4.99134         0.59120
C          0.00200        -5.70954         0.26672
C          1.22028        -4.99338         0.06238
C          2.44520        -5.70203        -0.16159
C          3.67008        -4.99715        -0.35184
C          4.87641        -5.72301        -0.57984
C          6.14088        -5.00092        -0.85982
C          7.45301        -5.77984        -0.99763
C          8.68269        -4.97068        -0.62438
C         -7.32218        -7.18259        -0.15032
C         -6.18746        -7.89819         0.17805
C         -4.97884        -7.17609         0.61768
C         -3.66488        -7.95276         0.67776
C         -2.42102        -7.19081         0.56297
C         -1.24395        -7.85601         0.26212
C          0.00278        -7.12980         0.16781
C          1.21558        -7.83725        -0.02956
C          2.44704        -7.12487        -0.16256
C          3.67940        -7.83313        -0.24110
C          4.90062        -7.11932        -0.41824
C          6.17412        -7.83221        -0.33338
C          7.37106        -7.16690        -0.41657
C         -6.13195        -9.33401         0.09964
C         -4.95201       -10.03015         0.15267
C         -3.67910        -9.37392         0.28441
C         -2.47777       -10.00928         0.03720
C         -1.23283        -9.29875         0.06666
C         -0.01709        -9.96838        -0.06715
C          1.22295        -9.27119        -0.07372
C          2.46341        -9.95554        -0.10335
C          3.67854        -9.26276        -0.14057
C          4.94958        -9.94643        -0.06493
C          6.12707        -9.26402        -0.10201
O          9.04352         4.11876         1.96006
H          8.23222         3.93385         2.49381
O         -8.86271        -1.08103        -1.87799
O          6.12342        -3.99541        -1.95306
O         -2.39637        -2.87991         2.53077
H         -2.99572        -2.15873         2.84378
O         -7.75503        -2.13536         1.37109
O         -4.43884        -7.65128         1.90436
O          8.49188         4.42790        -1.62541
H          8.33339         5.20288        -2.20185
O          6.73192         3.06109         1.88846
O          7.26064        -3.11167         1.45632
H          8.06376        -2.75388         1.89099
O         -0.61248         3.20488        -1.43746
O         -2.38886        -5.82845         2.48903
H         -3.16648        -6.37264         2.75929
O          1.17401         8.97773         1.39150
O          6.16793         0.18789        -1.51173
O         -3.85606        -0.55568         2.40765
H         -4.77296        -0.25741         2.59533
O          3.82951         8.29841         2.17661
H          2.99559         8.75705         2.42827
O          7.63861        -6.02501        -2.43216
H          7.31424        -5.21256        -2.88746
H         12.08307        -1.25804        -0.28573
H         12.10703         1.18890        -0.07742
H         10.95320         3.28810         0.28050
H          9.52614         5.53452        -0.17102
H          8.24998         7.60917        -0.41881
H          7.04704         9.72384        -0.50336
H          4.92156        10.92491        -0.71959
H          2.67379        11.01531        -0.80998
H         -0.11468        10.80619        -1.12303
H         -2.48850        11.04680        -0.34978
H         -4.96988        11.07469        -0.24192
H         -7.11397         9.84125        -0.22716
H         -8.35605         7.69709        -0.20063
H         -9.59160         5.53831        -0.28384
H        -10.80819         3.38058        -0.48844
H        -12.00810         1.20662        -0.68791
H        -12.01942        -1.23313        -0.86014
H        -10.71937        -3.51049        -0.84137
H         -9.44614        -5.65192        -0.63396
H         -8.23402        -7.72200        -0.44896
H         -7.07172        -9.87537        -0.08491
H         -4.95877       -11.12063         0.00761
H         -2.46851       -11.08212        -0.20854
H         -0.01279       -11.06512        -0.15753
H          2.46803       -11.05560        -0.07400
H          4.94731       -11.03990         0.05603
H          7.08177        -9.80404        -0.01774
H          8.31080        -7.73007        -0.30649
H          9.64596        -5.47237        -0.81523
H         10.86797        -3.37388        -0.44494
