         204
 CSIRO Nanostructure Databank - Neutral Graphene Oxide Data Set
C        -11.11101         0.65460         0.13172
C         -9.88945         1.41164         0.00253
C         -8.65045         0.67483        -0.17980
C         -7.42487         1.39220        -0.20606
C         -6.20828         0.74314        -0.47377
C         -4.96202         1.43704        -0.44556
C         -3.71632         0.71948        -0.39672
C         -2.46645         1.45424        -0.43449
C         -1.21962         0.76909        -0.45723
C          0.01825         1.44600        -0.51540
C          1.27227         0.71153        -0.59085
C          2.46729         1.36730        -0.42076
C          3.77388         0.60676        -0.38045
C          4.96835         1.52457        -0.64641
C          6.15663         1.10720        -1.20781
C          7.44623         1.59202        -0.81111
C          8.60758         0.79254        -0.84049
C          9.84542         1.46784        -0.54226
C         11.08780         0.71825        -0.53330
C         -9.89112         2.80661         0.00654
C         -8.68490         3.57272        -0.00537
C         -7.39779         2.82626         0.25139
C         -6.16149         3.57816        -0.16892
C         -4.95194         2.87586        -0.36241
C         -3.71007         3.58890        -0.45475
C         -2.49624         2.86559        -0.57058
C         -1.21734         3.57735        -0.68673
C          0.04931         2.86105        -0.46315
C          1.24781         3.54650        -0.17874
C          2.45834         2.73629         0.21226
C          3.75218         3.51197         0.15332
C          4.97539         2.84130        -0.04718
C          6.22399         3.53325         0.08685
C          7.43369         2.91911        -0.23964
C          8.69691         3.61585        -0.09484
C          9.88149         2.84066        -0.27471
C         -8.66130         4.95819        -0.04647
C         -7.43158         5.70751        -0.02762
C         -6.17853         4.99622        -0.11833
C         -4.95454         5.72135        -0.14568
C         -3.71185         5.02262        -0.28161
C         -2.50811         5.74045        -0.13551
C         -1.23235         5.06680        -0.38875
C         -0.00931         5.63054         0.22023
C          1.27285         4.93342         0.07168
C          2.47598         5.63241         0.37040
C          3.72454         4.92647         0.36916
C          4.93900         5.64387         0.56905
C          6.23400         4.87858         0.77375
C          7.47026         5.69624         0.44252
C          8.68751         4.99409         0.13651
C         -7.41509         7.11208         0.02748
C         -6.20454         7.84263         0.05456
C         -4.95616         7.14346        -0.00638
C         -3.73183         7.86036         0.09351
C         -2.49353         7.14838         0.10869
C         -1.27547         7.85915         0.27273
C         -0.03325         7.12337         0.52580
C          1.25514         7.81197         0.52817
C          2.46057         7.06494         0.53697
C          3.70273         7.75923         0.67754
C          4.91975         7.02830         0.75411
C          6.19507         7.71681         1.18662
C          7.42683         7.05199         0.62515
C         -6.16993         9.27441         0.15031
C         -4.98575         9.96751         0.20397
C         -3.71541         9.29049         0.19232
C         -2.48948         9.97752         0.26278
C         -1.24564         9.28120         0.31468
C          0.01606         9.94063         0.44729
C          1.24626         9.24005         0.51879
C          2.51217         9.90895         0.61120
C          3.70034         9.19822         0.71720
C          4.99003         9.87682         0.79953
C          6.14882         9.20673         0.96512
C        -11.12575        -0.70991         0.10791
C         -9.92208        -1.48288        -0.13130
C         -8.67856        -0.74317        -0.30134
C         -7.47631        -1.47161        -0.49743
C         -6.24140        -0.70196        -0.72087
C         -4.91671        -1.44421        -0.56581
C         -3.71112        -0.67584        -0.27484
C         -2.47886        -1.41532         0.01930
C         -1.17413        -0.66884        -0.15601
C          0.02941        -1.44390        -0.49505
C          1.23341        -0.74686        -0.73270
C          2.44177        -1.46106        -0.82807
C          3.69789        -0.70374        -1.21459
C          4.95238        -1.53655        -1.01287
C          6.17519        -1.07944        -1.43591
C          7.43304        -1.55798        -0.99172
C          8.67814        -0.71450        -1.25326
C          9.89144        -1.41459        -0.65827
C         11.10880        -0.64257        -0.55876
C         -9.93864        -2.85665        -0.21529
C         -8.73848        -3.64986        -0.67559
C         -7.44953        -2.88843        -0.48538
C         -6.24326        -3.60746        -0.28741
C         -5.01086        -2.83852        -0.06811
C         -3.69543        -3.58991         0.11912
C         -2.44900        -2.87940        -0.13092
C         -1.26600        -3.58583        -0.33174
C         -0.00830        -2.85985        -0.50485
C          1.21653        -3.55652        -0.54183
C          2.42857        -2.84806        -0.60034
C          3.65588        -3.53351        -0.15379
C          4.96206        -2.79238        -0.27316
C          6.21774        -3.55056        -0.20934
C          7.44570        -2.86277        -0.45186
C          8.68748        -3.53698        -0.16745
C          9.88756        -2.73450        -0.26951
C         -8.66879        -5.06584        -0.16765
C         -7.46717        -5.73622         0.00269
C         -6.21125        -5.00773        -0.06963
C         -4.97069        -5.71749         0.08962
C         -3.72817        -5.04270         0.04955
C         -2.48923        -5.73259        -0.02768
C         -1.28790        -5.01875        -0.26240
C         -0.04935        -5.78873        -0.43263
C          1.26285        -5.03372        -0.54347
C          2.50082        -5.72458        -0.14372
C          3.69418        -4.98929        -0.00915
C          4.93731        -5.63458         0.22733
C          6.18727        -4.91279         0.14436
C          7.43355        -5.61239         0.32437
C          8.66055        -4.87756         0.21124
C         -7.41006        -7.14828         0.28269
C         -6.20555        -7.84149         0.37596
C         -4.95317        -7.14228         0.24476
C         -3.71831        -7.84238         0.31692
C         -2.47897        -7.16253         0.14224
C         -1.24135        -7.86574         0.23084
C         -0.00920        -7.18952         0.02241
C          1.22860        -7.84087         0.19948
C          2.47867        -7.11816         0.12631
C          3.70789        -7.77152         0.43155
C          4.93740        -7.04280         0.43754
C          6.18450        -7.71536         0.66524
C          7.39676        -6.99385         0.61275
C         -6.15622        -9.26848         0.60870
C         -4.97212        -9.93959         0.70382
C         -3.70055        -9.26551         0.56377
C         -2.48875        -9.94237         0.67863
C         -1.23145        -9.27242         0.53441
C          0.00536        -9.92818         0.67828
C          1.23948        -9.23819         0.55301
C          2.48690        -9.87991         0.77309
C          3.70359        -9.17855         0.72205
C          4.96512        -9.82054         0.96849
C          6.14834        -9.12521         0.93054
O          6.30376         4.62181         2.21376
H          6.35199         5.50896         2.64882
O          6.17948         0.10289        -2.19834
O         -1.10590         4.58593        -1.76201
O         -7.29901         2.74190         1.72998
H         -7.27064         3.66253         2.06866
O         -4.45249        -3.00519         1.26190
O         -1.70831        -0.95424         1.18889
O          2.28436         2.45234         1.65350
H          2.93769         1.74546         1.87525
O          4.20959        -2.77692         1.01348
O          3.96017         0.21452         1.02118
H          3.94190        -0.77227         1.09847
O         -8.91946        -3.77542        -2.15060
H         -8.82002        -2.87485        -2.52837
O          6.27556         7.50557         2.65309
H          5.49254         7.94284         3.05175
O          8.88479        -0.70583        -2.69917
H          8.08042        -0.30097        -3.09423
O          3.54091        -0.36265        -2.60688
H          4.41315        -0.03243        -2.92582
O          0.61774        -5.59443        -1.74149
O         -0.20925         6.10209         1.58625
O         -5.48104        -1.19489        -1.88650
H         12.05933        -1.18056        -0.42073
H         12.02497         1.28046        -0.40682
H         10.85915         3.32793        -0.13898
H          9.63093         5.56028         0.10243
H          8.33846         7.65789         0.50180
H          7.09886         9.75958         1.02589
H          4.99623        10.97380         0.70410
H          2.53618        11.00916         0.60892
H          0.03320        11.04016         0.48717
H         -2.49042        11.07677         0.31419
H         -4.99665        11.06548         0.27179
H         -7.12426         9.82125         0.17942
H         -8.36966         7.65821         0.07490
H         -9.60986         5.51465        -0.10816
H        -10.85478         3.33988         0.02804
H        -12.04993         1.20871         0.28109
H        -12.07434        -1.25255         0.23433
H        -10.89596        -3.39050        -0.10717
H         -9.61416        -5.62334        -0.07980
H         -8.35705        -7.70147         0.37875
H         -7.10673        -9.81219         0.71544
H         -4.96837       -11.02424         0.88847
H         -2.49178       -11.02269         0.88950
H          0.01905       -11.00181         0.92007
H          2.49706       -10.95262         1.01944
H          4.97076       -10.89908         1.18519
H          7.09771        -9.65021         1.11334
H          8.34299        -7.53249         0.77520
H          9.60761        -5.40436         0.40465
H         10.83592        -3.18470         0.06616
