         598
 CSIRO Nanostructure Databank - Neutral Graphene Oxide Data Set
C         23.27483        69.82517         2.04259
C         23.26665        71.24511         2.06263
C         22.05450        71.96664         2.00765
C         23.24069        74.08254         1.93075
C         22.05139        73.36766         1.95671
C         25.72502        65.58672         1.65849
C         25.73582        66.97181         1.88686
C         24.51115        67.70006         1.98682
C         25.73246        69.83064         2.37204
C         24.47232        69.09211         2.12042
C         25.74619        71.28922         2.15115
C         24.51272        71.97270         2.06531
C         25.71550        74.09959         1.90664
C         24.49459        73.40459         1.96905
C         28.06410        61.31551         0.94063
C         28.08444        62.72998         1.12404
C         26.89668        63.46166         1.27275
C         28.18504        65.55860         1.47030
C         26.92596        64.86314         1.46958
C         28.19461        66.96167         1.73942
C         27.00415        67.64672         1.96511
C         28.28930        69.84415         2.05712
C         27.04493        69.08120         2.31889
C         28.23538        71.27479         1.97239
C         26.97518        71.97615         2.03432
C         28.16158        74.10878         1.70512
C         26.94987        73.41038         1.89485
C         30.27798        57.06345        -0.19661
C         30.31910        58.45076         0.02755
C         29.16802        59.18045         0.40131
C         30.51342        61.23220         0.64019
C         29.22648        60.57008         0.65977
C         30.57815        62.63183         1.12598
C         29.33800        63.43735         1.12844
C         30.67809        65.58526         0.97984
C         29.39323        64.82274         1.26105
C         30.76070        66.92727         1.69649
C         29.48584        67.66960         1.95705
C         30.72802        69.85490         1.69762
C         29.49601        69.15521         1.92150
C         30.68880        71.30375         1.59818
C         29.43415        71.99057         1.73316
C         30.56204        74.14409         1.26307
C         29.39058        73.42762         1.58617
C         32.66186        52.69928        -0.79617
C         32.53868        54.14370        -1.08640
C         31.38411        54.93455        -0.68182
C         32.65686        57.07067        -0.89876
C         31.42670        56.32843        -0.60685
C         32.67462        58.49823        -0.68098
C         31.57131        59.16279        -0.16113
C         32.95095        61.21798         0.19622
C         31.65408        60.55994         0.22065
C         33.12102        62.55239         0.79292
C         31.90358        63.33869         1.19104
C         33.27305        65.50130         1.40613
C         31.95481        64.80411         1.12954
C         33.19577        67.01355         1.19622
C         31.99935        67.70382         1.43775
C         33.19146        69.85906         1.27907
C         31.93508        69.13238         1.47991
C         33.14466        71.40922         1.14918
C         31.83992        72.05546         1.27045
C         32.95414        74.19876         0.69311
C         31.78894        73.47804         1.05603
C         35.19342        48.50578        -0.37822
C         35.09392        49.92514        -0.26117
C         33.94980        50.59590        -0.69705
C         35.13743        52.78807        -0.70581
C         33.87608        52.03979        -0.72553
C         35.08862        54.24918        -0.92432
C         33.82430        54.92587        -1.33647
C         35.07456        57.09760        -1.62722
C         33.82352        56.39735        -1.22805
C         35.11706        58.58815        -1.54856
C         33.88298        59.28146        -1.02212
C         35.26617        61.33075        -0.68745
C         34.03814        60.61670        -0.41980
C         35.32630        62.71049        -0.49189
C         34.33757        63.36894         0.36950
C         35.49825        65.53952         0.11408
C         34.27691        64.82795         0.48898
C         35.56819        67.04808         0.29300
C         34.34023        67.74939         0.74045
C         35.34456        69.88482        -0.05747
C         34.31339        69.13385         0.68065
C         35.30897        71.39149        -0.18746
C         34.21502        72.12322         0.45462
C         35.33762        74.21814        -0.07211
C         34.16056        73.53215         0.34064
C         37.76916        44.19742        -0.20651
C         37.69806        45.61114        -0.23980
C         36.43204        46.31482        -0.38936
C         38.25318        48.59691         0.46129
C         36.22299        47.62562         0.03658
C         38.61540        49.95220         0.85566
C         36.05030        50.87745         0.41990
C         37.61002        52.87106        -0.49362
C         36.32352        52.19077        -0.30518
C         37.59954        54.18809        -1.16230
C         36.36981        55.00385        -1.03767
C         37.68536        57.10363        -1.60952
C         36.38710        56.37021        -1.63976
C         37.67455        58.50387        -1.52749
C         36.43275        59.25799        -1.38689
C         37.75332        61.36085        -0.98064
C         36.45113        60.61133        -1.13151
C         37.67324        62.76176        -1.57541
C         36.36312        63.50109        -1.18943
C         37.31363        65.76646        -1.49036
C         36.39508        64.94704        -0.89802
C         37.64509        67.10552        -1.08874
C         36.61456        67.81423        -0.42865
C         37.62548        69.93689        -1.09831
C         36.59544        69.21658        -0.44492
C         37.70735        71.40405        -0.98066
C         36.55658        72.09918        -0.53590
C         37.75852        74.22505        -0.51469
C         36.54162        73.52823        -0.38133
C         40.28329        39.90723         0.28329
C         40.23048        41.29127        -0.04975
C         39.03870        42.02189        -0.10961
C         40.21288        44.17620        -0.19745
C         39.00092        43.46192        -0.21100
C         40.18986        45.63005        -0.13686
C         38.91765        46.35397        -0.32114
C         40.29082        48.36807        -0.87620
C         39.04196        47.78086        -0.37461
C         40.29769        49.71623        -1.28358
C         38.84713        50.83064        -0.16497
C         40.11635        52.82954        -0.86738
C         38.86007        52.27941        -0.35943
C         40.15224        54.14678        -1.27847
C         38.89252        54.87672        -1.52133
C         40.14537        57.01255        -1.81672
C         38.92352        56.36325        -1.64446
C         40.13066        58.47947        -1.98817
C         38.91739        59.21887        -1.58677
C         40.21094        61.31488        -1.47628
C         38.97666        60.60530        -1.43831
C         40.19910        62.76537        -1.43306
C         38.98283        63.44603        -1.69626
C         40.22454        65.60122        -1.85667
C         39.10003        64.78471        -2.08524
C         40.08927        67.09441        -2.03549
C         38.77433        67.76515        -1.66906
C         40.41442        70.21535        -1.80325
C         38.59884        69.15737        -1.77839
C         40.25061        71.49614        -1.21480
C         38.95701        72.12449        -1.05482
C         40.19312        74.21645        -0.51575
C         38.96828        73.52603        -0.71535
C         42.76195        35.71084         1.05430
C         42.70408        37.09254         0.91988
C         41.49642        37.80316         0.66417
C         42.81113        39.82094         0.02212
C         41.48482        39.18138         0.39127
C         42.78678        41.32289         0.01022
C         41.51419        41.97132        -0.33997
C         42.76128        44.18799        -0.14630
C         41.49476        43.49874        -0.40817
C         42.83407        45.68324         0.09833
C         41.50738        46.38606        -0.12542
C         42.69528        48.38025        -1.15803
C         41.52008        47.70448        -0.77660
C         42.67083        49.79283        -1.26495
C         41.44273        50.52555        -1.24387
C         42.72531        52.76350        -0.94897
C         41.39684        51.97953        -0.66110
C         42.64421        54.02977        -1.79298
C         41.38135        54.82081        -1.77355
C         42.62840        56.99721        -1.81844
C         41.42402        56.31437        -1.83173
C         42.76145        58.47306        -2.17521
C         41.44230        59.23355        -2.08514
C         42.67024        61.29842        -1.40567
C         41.45176        60.64211        -1.65460
C         42.62798        62.73600        -1.07117
C         41.40048        63.50650        -1.36919
C         42.67048        65.68287        -1.36188
C         41.42546        64.92788        -1.50188
C         42.65008        67.07451        -1.51937
C         41.44970        67.88419        -1.90093
C         42.66912        70.01565        -1.09664
C         41.50686        69.35941        -1.57531
C         42.65889        71.39784        -0.75495
C         41.44059        72.13038        -0.76963
C         42.63503        74.20089        -0.16939
C         41.42424        73.53873        -0.45803
C         45.26721        32.92149         1.18876
C         44.04973        33.59354         1.15620
C         45.21958        35.71586         1.43485
C         44.00354        35.00988         1.24740
C         45.18906        37.17857         1.63852
C         43.91523        37.88646         1.24309
C         45.20819        39.96883         0.76855
C         43.99997        39.27502         0.76978
C         45.22948        41.37287         0.40060
C         43.96263        42.04182         0.10773
C         45.16972        44.28118         0.17558
C         43.92547        43.48932         0.01242
C         45.18305        45.62000        -0.47986
C         44.01530        46.28691        -0.64043
C         45.21844        48.39619        -1.27169
C         43.95213        47.58753        -1.42355
C         45.19204        49.79592        -1.26411
C         43.92852        50.50913        -1.30083
C         45.11439        52.62473        -1.23544
C         43.90254        51.90098        -1.34756
C         45.20558        54.05874        -1.51141
C         43.94766        54.78626        -1.89555
C         45.16915        57.00643        -1.40060
C         43.93686        56.28808        -1.84314
C         45.16133        58.43759        -1.35739
C         43.94391        59.18435        -1.53612
C         45.17003        61.33346        -1.25862
C         43.92127        60.58508        -1.38297
C         45.17531        62.72941        -1.22587
C         43.93344        63.49064        -0.99952
C         45.15239        65.62152        -1.07499
C         43.92436        64.96209        -1.18243
C         45.11403        67.07542        -0.85601
C         43.92147        67.80977        -1.37628
C         45.18060        69.99115        -0.73099
C         43.95397        69.31328        -1.18703
C         45.10254        71.38161        -0.42846
C         43.88925        72.07751        -0.41248
C         45.06482        74.22647         0.04807
C         43.87657        73.51163        -0.14616
C         46.47078        33.63063         1.26526
C         47.69604        35.78927         1.33463
C         46.46411        35.03774         1.37318
C         47.73163        37.17279         1.36805
C         46.49923        37.96023         1.76070
C         47.66769        40.01015         0.96584
C         46.45867        39.33443         1.11703
C         47.68626        41.41294         0.64255
C         46.43123        42.07267         0.42963
C         47.72456        44.22629         0.02144
C         46.45246        43.54317         0.32469
C         47.72896        45.56388        -0.40076
C         46.48300        46.19258        -0.89323
C         47.75149        48.39890        -0.98867
C         46.49776        47.67086        -1.25641
C         47.78143        49.90722        -1.15881
C         46.40286        50.54382        -1.12439
C         47.40244        52.67333        -0.35241
C         46.33471        51.94648        -1.00062
C         47.52184        54.08749        -0.31615
C         46.45515        54.81338        -1.09847
C         47.54895        56.99210        -0.80550
C         46.34459        56.30055        -1.05509
C         47.58366        58.38732        -1.00892
C         46.39675        59.13351        -1.19200
C         47.63586        61.27674        -1.19729
C         46.42648        60.59552        -1.25059
C         47.73117        62.74284        -1.32128
C         46.41598        63.50818        -1.37274
C         47.63959        65.65177        -0.89841
C         46.41852        64.95646        -1.04333
C         47.66611        67.08493        -0.72729
C         46.39305        67.82108        -0.61810
C         47.65291        69.96964        -0.71029
C         46.40325        69.29460        -0.71398
C         47.60320        71.45183        -0.68046
C         46.36607        72.06791        -0.10165
C         47.62954        74.30781         0.02508
C         46.36153        73.57075         0.12896
C         48.93921        37.90457         1.22535
C         50.14123        40.04882         1.04055
C         48.93994        39.31019         1.11654
C         50.15105        41.44377         0.81509
C         48.90249        42.13054         0.59309
C         50.16055        44.25731         0.19665
C         48.93255        43.54193         0.28041
C         50.16128        45.63630        -0.11261
C         48.94608        46.29373        -0.41994
C         50.10076        48.54046        -0.28419
C         48.89002        47.73613        -0.61796
C         49.85283        49.86017         0.39882
C         48.63949        50.54233        -0.08418
C         49.94579        52.87889         1.16719
C         48.27681        51.78702         0.36150
C         49.83892        54.29019         0.81842
C         48.64977        54.82146         0.17189
C         49.73243        57.08753         0.38326
C         48.82264        56.20996        -0.46675
C         49.80864        58.56171         0.02863
C         48.94445        59.03474        -1.12905
C         50.17781        61.32180        -0.91017
C         48.92111        60.55854        -1.22642
C         50.11474        62.77828        -0.60287
C         48.94388        63.46791        -0.85451
C         50.10544        65.62456        -0.68288
C         48.91447        64.93057        -0.81211
C         50.13182        67.08520        -0.91930
C         48.85522        67.82244        -0.74955
C         50.15149        69.99664        -0.88856
C         48.86256        69.25842        -0.77091
C         50.15680        71.52001        -0.78628
C         48.85633        72.26384        -0.69771
C         50.08722        74.30766         0.00621
C         48.84617        73.66002        -0.17025
C         51.36185        42.18660         0.79745
C         52.59455        44.31623         0.64880
C         51.39698        43.56208         0.52099
C         52.63551        45.69346         0.40148
C         51.49048        46.34279        -0.34724
C         52.51778        48.59821         0.54621
C         51.41172        47.85997        -0.12545
C         52.41271        49.93108         0.85532
C         51.08516        50.62175         0.95531
C         52.34589        52.84642         1.32108
C         51.08899        52.10939         1.06109
C         52.27716        54.34903         1.51037
C         51.00447        55.06078         1.11220
C         51.77933        57.38619         1.66658
C         50.90722        56.49038         1.03829
C         51.92721        58.75560         1.25507
C         51.04821        59.27488         0.31094
C         52.59816        61.27650        -0.01083
C         51.34754        60.53593        -0.38376
C         52.52885        62.76121        -0.09520
C         51.36101        63.45739        -0.27900
C         52.64322        65.63311        -0.45033
C         51.33904        64.96950        -0.09444
C         52.78040        67.08101        -0.87076
C         51.44554        67.82763        -0.93171
C         52.55419        69.94191        -0.20523
C         51.42303        69.27571        -0.60459
C         52.49908        71.38595         0.13893
C         51.33578        72.18706        -0.22473
C         52.54213        74.28072         0.25248
C         51.32208        73.58957         0.02429
C         53.78072        46.45632         0.67918
C         54.96850        48.60241         0.80858
C         53.78207        47.87173         0.67939
C         54.93840        50.01219         0.91015
C         53.65128        50.67043         1.35446
C         54.81125        52.88397         0.98197
C         53.63780        52.16477         1.10191
C         54.83303        54.32792         1.14859
C         53.61955        55.03469         1.49229
C         54.98188        57.04587         2.01774
C         53.75626        56.29523         2.03585
C         54.99104        58.40313         2.30168
C         53.09851        59.53539         1.63532
C         54.78311        61.40702         1.39927
C         53.50791        60.69013         1.02241
C         54.98408        62.73596         0.68502
C         53.84253        63.42154        -0.02677
C         55.12853        65.66757         0.16447
C         53.88590        64.89342        -0.30722
C         55.04350        67.14635         0.28121
C         53.86796        67.83317        -0.10376
C         55.01675        69.97036         0.26867
C         53.81542        69.23762         0.01202
C         55.05920        71.40656         0.33215
C         53.78310        72.13659         0.46348
C         55.00287        74.28314         0.34048
C         53.79323        73.61353         0.33324
C         56.08167        50.76506         0.69859
C         57.25537        52.90716         0.59657
C         56.07800        52.19041         0.76358
C         57.29591        54.32179         0.78223
C         56.07285        55.00384         1.14925
C         57.38994        57.07577         1.46085
C         56.17535        56.38437         1.53525
C         57.49310        58.48142         1.88993
C         56.18468        59.23600         2.23500
C         57.38757        61.42758         1.83117
C         56.04417        60.72323         1.95014
C         57.40846        62.82060         1.28687
C         56.14298        63.58122         1.09448
C         57.43208        65.68604         1.23922
C         56.19887        64.92697         0.87674
C         57.44181        67.18788         1.04749
C         56.21029        67.86375         0.58586
C         57.49416        69.96894         0.39605
C         56.23839        69.26927         0.43815
C         57.50493        71.37974         0.24748
C         56.26210        72.09665         0.33648
C         57.47451        74.26241        -0.18588
C         56.31609        73.59215         0.58399
C         58.48750        55.03722         0.64552
C         59.75748        57.15816         0.75668
C         58.56650        56.43388         0.92843
C         59.83223        58.56599         1.00883
C         58.68726        59.23134         1.48864
C         59.95936        61.40870         1.38063
C         58.70789        60.67830         1.71080
C         59.97631        62.77333         1.45389
C         58.72512        63.52642         1.23427
C         59.91311        65.71105         1.27080
C         58.73219        64.99904         1.25982
C         59.91429        67.11955         0.95774
C         58.73659        67.84309         0.79769
C         59.92951        69.94047         0.19179
C         58.72473        69.24620         0.43501
C         59.93798        71.33196        -0.05285
C         58.74302        72.06969         0.04644
C         59.97845        74.18610         0.09400
C         58.78019        73.52154        -0.00898
C         61.06642        59.28213         0.84656
C         62.39280        61.37874         0.93309
C         61.17879        60.66494         1.08536
C         62.49697        62.78520         1.17327
C         61.24944        63.51004         1.53784
C         62.48702        65.71704         1.20896
C         61.21396        65.01023         1.48260
C         62.47722        67.03738         0.90826
C         61.20232        67.72654         0.56445
C         62.45124        69.94164         0.18407
C         61.19132        69.17655         0.16588
C         62.45014        71.28466         0.05180
C         61.22733        72.04331        -0.35815
C         62.45669        74.14246         0.16990
C         61.24425        73.49577         0.05891
C         63.67529        63.49955         1.06947
C         64.98155        65.64613         0.85605
C         63.78170        64.95985         1.47307
C         65.00304        66.99128         0.56228
C         63.75384        67.77732         0.76087
C         64.92351        69.78849        -0.32779
C         63.72629        69.20625         0.33752
C         64.88501        71.26423        -0.68028
C         63.58179        72.04294        -0.56819
C         64.92910        74.08302        -0.06250
C         63.70752        73.45933        -0.06968
C         66.19208        67.70587         0.19400
C         67.38558        69.80572        -0.38292
C         66.21185        69.08108        -0.12453
C         67.38282        71.23148        -0.52762
C         66.16629        71.97579        -0.54745
C         67.40954        74.04457        -0.24908
C         66.17221        73.37250        -0.30942
C         68.60802        71.95124        -0.49551
C         68.61037        73.33675        -0.38570
O         30.25986        67.02466         3.04903
O         46.57197        46.60972        -2.30478
O         26.41490        69.40709         3.60631
O         41.52931        42.66733        -1.63404
O         34.22995        62.67878         1.72861
O         31.29188        62.76969         2.42613
O         54.85288        62.64109        -0.76098
O         52.94002        71.64171         1.54542
O         57.12125        58.81761         3.28301
O         48.76968        52.25617         1.57715
O         41.85262        54.09084        -2.99637
O         35.69918        54.95827         0.24847
O         40.64453        58.97765        -3.28914
O         54.97002        65.24305        -1.22650
O         43.29612        53.22635         0.29200
O         50.77672        67.49700        -2.19988
O         33.08614        54.40643        -2.46056
O         63.95494        68.86230         1.75153
O         55.11698        61.46281         2.81341
O         58.18966        61.19777         3.01323
O         46.46381        72.54901         1.25562
O         57.26597        66.59593         2.38719
O         33.60434        70.73593         2.38332
O         44.18668        68.68268        -2.51691
O         52.21388        53.47013         2.68941
O         40.74595        46.31200         1.12296
O         44.11073        55.54314        -3.11249
O         36.15833        66.16145         1.30404
O         62.99538        72.20388        -1.95203
O         46.30829        54.30264        -2.45756
O         52.52195        60.53436        -1.27386
O         36.26283        50.78072         1.61937
O         38.07184        54.19440        -2.54718
O         51.07289        48.58129        -1.38437
O         37.96682        65.36110        -2.66124
O         50.32117        70.84711        -2.07922
O         40.82916        67.57471        -3.18500
O         47.18451        63.23416        -2.59428
O         64.78085        70.22899        -1.70862
O         39.01207        50.26485        -1.45208
O         49.05667        58.09881         1.19595
O         36.65018        63.02725        -2.54920
O         61.30717        64.30723         2.78978
O         52.65496        56.90432         2.64141
O         61.21225        68.12160        -0.86599
O         58.11162        62.94108        -0.01112
O         61.50359        72.07783        -1.83605
O         35.63264        56.52913        -2.87683
O         43.22805        63.07418         0.23652
O         45.78428        44.20000         1.49711
O         44.26033        37.65147         2.67596
O         34.75724        70.52320        -1.27204
O         48.04255        72.12106        -1.90948
O         49.81203        61.03550        -2.30364
O         45.51190        67.40361         0.51981
O         50.14269        49.88582         1.82264
O         53.82805        59.04676         2.71981
O         34.20782        59.26199        -2.46752
O         39.41800        69.82065        -2.69466
O         37.11885        48.12790         1.04691
O         49.52909        55.91235        -1.69881
H         49.54927        56.73527        -2.24969
O         43.03700        39.43582        -1.39025
H         42.40861        39.95553        -1.93734
O         57.16333        74.30861        -1.58623
H         57.31636        73.42189        -1.97263
O         51.79852        46.12624        -1.75231
H         51.46079        46.91787        -2.23635
O         53.63326        50.55489         2.81632
H         52.91406        51.13235         3.15511
O         51.17435        65.17423         1.37429
H         50.33327        64.74627         1.64447
O         43.18594        45.86722         1.49647
H         42.34583        45.87702         2.01100
O         46.69696        38.22342         3.18477
H         45.79613        38.34327         3.56882
O         37.94345        61.60968         0.45279
H         37.99768        60.74629         0.91356
O         43.13654        58.44947        -3.58378
H         42.30442        58.31803        -4.09622
O         41.40201        51.69112         0.75142
H         42.19984        52.19591         1.09794
O         63.99709        64.96829         2.92020
H         63.14336        64.67886         3.32634
O         30.58163        65.98094        -0.44648
H         30.46450        65.16748        -0.98180
O         49.54871        58.52972        -2.34713
H         49.93494        59.30807        -2.82456
O         38.52315        50.34194         2.15624
H         38.01926        49.67695         2.66713
O         48.36782        50.18995        -2.46201
H         47.82127        49.75124        -3.14696
O         53.30470        67.08632        -2.23255
H         52.53358        66.96416        -2.83411
O         56.64172        73.77147         1.99748
H         55.91351        73.38229         2.52659
O         33.63517        65.28064         2.79453
H         33.85425        64.32298         2.88504
O         43.88551        47.19557        -2.83969
H         44.77461        46.82621        -3.06617
H         23.22770        75.18026         1.87363
H         25.71316        75.19663         1.82543
H         28.14031        75.20216         1.58594
H         30.50913        75.23532         1.13735
H         32.89893        75.29311         0.60642
H         35.34564        75.31744        -0.06545
H         37.78670        75.30893        -0.33147
H         40.16173        75.29544        -0.30355
H         42.62148        75.28258         0.02908
H         45.02715        75.32547         0.07695
H         47.62429        75.38311         0.25935
H         50.09821        75.37488         0.27103
H         52.52322        75.37928         0.29616
H         55.00854        75.38201         0.27910
H         57.57678        75.31862         0.16546
H         59.98535        75.28507         0.16377
H         62.48299        75.21832         0.40358
H         64.99234        75.15246         0.19038
H         67.42672        75.13258        -0.09375
H         22.32113        69.28721         1.93237
H         21.10259        71.41667         2.00438
H         21.09252        73.90367         1.92322
H         24.76566        65.04961         1.63100
H         23.56617        67.14898         1.86683
H         27.09345        60.79839         0.96363
H         25.92882        62.93966         1.25662
H         29.33334        56.52287        -0.03620
H         28.20155        58.66052         0.47665
H         31.73282        52.11244        -0.72756
H         30.49259        54.40850        -0.30770
H         34.39083        48.03164        -0.96744
H         33.06817        50.02221        -1.02276
H         36.82690        43.63002        -0.20417
H         35.63174        45.81707        -0.95725
H         39.33754        39.38667         0.50169
H         38.08535        41.48996         0.03074
H         41.85090        35.11548         0.89069
H         40.54273        37.25393         0.70674
H         45.28691        31.82497         1.11941
H         43.11135        33.03237         1.04233
H         47.43021        33.09480         1.24397
H         48.63441        35.23156         1.18848
H         49.89224        37.35833         1.14965
H         51.09970        39.52179         1.16280
H         52.30431        41.66423         1.02202
H         53.49136        43.81883         1.05028
H         54.70124        45.93691         0.98893
H         55.93658        48.08435         0.73431
H         57.02420        50.25354         0.44975
H         58.19170        52.36986         0.38466
H         59.39696        54.50925         0.32226
H         60.65620        56.63574         0.39886
H         61.95922        58.71679         0.54118
H         63.30098        60.82693         0.64778
H         64.60752        62.96219         0.83521
H         65.90660        65.05666         0.75635
H         67.14687        67.15728         0.20138
H         68.35761        69.29260        -0.32224
H         69.55686        71.39661        -0.51958
H         69.56544        73.87941        -0.35582
