         261
 CSIRO Nanostructure Databank - Neutral Graphene Oxide Data Set
C        -11.17135         0.70866        -0.01077
C        -10.01594         1.42776         0.57065
C         -8.74075         0.64509         0.83982
C         -7.43352         1.39304         0.67895
C         -6.25619         0.63615         0.09572
C         -5.12835         1.39303        -0.53841
C         -3.86457         0.67954        -0.87560
C         -2.61442         1.35743        -0.33563
C         -1.28566         0.70842        -0.72854
C         -0.10503         1.46855        -0.16951
C          1.09523         0.76604         0.37522
C          2.37119         1.55740         0.68214
C          3.68293         0.84616         1.13929
C          4.92561         1.61031         0.64800
C          6.21618         0.87947         0.44432
C          7.48781         1.62607         0.85285
C          8.81925         0.84998         0.80111
C         10.11692         1.57292         0.54702
C         11.28703         0.71796         0.21687
C         -9.96959         2.89649         0.40071
C         -8.81054         3.62845         0.54980
C         -7.47439         2.94346         0.73062
C         -6.44357         3.62501        -0.15257
C         -5.18007         2.89973        -0.46488
C         -3.90017         3.67910        -0.41441
C         -2.58623         2.89885        -0.39593
C         -1.30132         3.64457        -0.60735
C          0.00622         2.88597        -0.67332
C          1.27814         3.64120        -0.48058
C          2.41776         3.02161         0.31377
C          3.66994         3.91291         0.51796
C          4.98520         3.13442         0.77595
C          6.29940         3.80015         0.47747
C          7.54101         2.98771         0.13992
C          8.86120         3.73834         0.27684
C         10.05688         3.03068         0.29049
C         -8.76480         5.04737         0.71489
C         -7.55099         5.79501         0.60254
C         -6.46358         5.14191        -0.18147
C         -5.25576         5.90841        -0.63624
C         -3.92749         5.16592        -0.63265
C         -2.65457         5.85557        -1.08860
C         -1.35488         5.08826        -1.05749
C         -0.07553         5.85962        -0.83548
C          1.20996         5.15030        -0.48594
C          2.53157         5.88025        -0.77409
C          3.78643         4.99499        -0.54809
C          5.10224         5.65777        -0.82023
C          6.41686         4.95628        -0.49174
C          7.62726         5.83549        -0.26536
C          8.82319         5.14789         0.08597
C         -7.34370         7.06099         1.12929
C         -6.18640         7.89974         0.74289
C         -5.17277         7.35637        -0.23223
C         -3.87047         8.08303        -0.49296
C         -2.66827         7.37588        -1.04649
C         -1.35583         8.16407        -1.21421
C         -0.11003         7.29418        -1.37202
C          1.56572         8.08290         0.55613
C          2.69189         7.17866         0.03899
C          3.96880         7.89160        -0.23440
C          5.08593         7.17210        -0.98171
C          6.39165         7.90977        -0.97152
C          7.62067         7.17305        -0.63206
C         -5.71187         9.03767         1.56991
C         -4.59257         9.72592         1.28480
C         -3.71307         9.50386         0.06548
C         -2.26495         9.88511         0.35114
C         -1.14578         9.31538        -0.20492
C          0.13031        10.00503        -0.16853
C          1.43415         9.41745        -0.12909
C          2.63335        10.03114        -0.45908
C          3.95416         9.41509         0.00627
C          5.22054        10.06930        -0.49591
C          6.34442         9.38736        -0.77103
C        -11.16189        -0.60973        -0.28909
C        -10.01915        -1.48728         0.04280
C         -8.76324        -0.85644         0.61090
C         -7.49528        -1.61989         0.28940
C         -6.25632        -0.87677        -0.08948
C         -5.27211        -1.48823        -1.10622
C         -3.87169        -0.83063        -1.04545
C         -2.56321        -1.57369        -1.05580
C         -1.26529        -0.78245        -0.81844
C         -0.10183        -1.49623        -0.18282
C          1.09893        -0.74655         0.33159
C          2.43101        -1.44918         0.47214
C          3.69528        -0.69631         0.83831
C          5.08039        -1.41750         0.81747
C          6.26947        -0.61793         0.31233
C          7.58285        -1.34002         0.23065
C          8.80717        -0.65802         0.74336
C         10.10734        -1.42883         0.76472
C         11.30388        -0.62283         0.41475
C         -9.79239        -2.78206        -0.73428
C         -8.92499        -3.76162         0.01329
C         -7.73120        -2.94861        -0.40330
C         -6.47032        -3.74933        -0.63779
C         -5.20010        -3.03298        -0.98889
C         -3.87133        -3.80421        -0.89896
C         -2.49021        -3.12055        -1.10240
C         -1.36874        -3.68636        -0.21601
C         -0.05367        -2.98100        -0.41205
C          1.22158        -3.69342        -0.14792
C          2.49061        -2.88963         0.01224
C          3.78454        -3.60398         0.19035
C          5.07444        -2.81881         0.21680
C          6.36060        -3.56361         0.05575
C          7.70450        -2.84774         0.02509
C          8.88637        -3.59807         0.57472
C         10.08676        -2.92686         0.66773
C         -8.92545        -5.11679         0.07278
C         -7.66681        -5.84664         0.23540
C         -6.42538        -4.95826         0.34157
C         -5.10352        -5.76455         0.33862
C         -3.87811        -5.20331        -0.33999
C         -2.56739        -5.93077        -0.11425
C         -1.34241        -5.12608         0.18190
C         -0.04527        -5.90673         0.31975
C          1.24980        -5.17263         0.16204
C          2.50333        -5.79643         0.71543
C          3.82108        -5.02388         0.64841
C          5.14228        -5.74508         0.69705
C          6.45471        -5.02563         0.44650
C          7.61549        -5.78263        -0.13243
C          8.54832        -5.04937         0.83206
C         -7.63038        -7.19565         0.39149
C         -6.42174        -8.00818         0.83242
C         -5.11932        -7.22622         0.67315
C         -3.84945        -8.03083         0.63115
C         -2.56753        -7.36500         0.27767
C         -1.35031        -8.05357         0.81325
C         -0.07075        -7.29400         0.93304
C          1.22409        -8.17274         0.99063
C          2.51996        -7.28957         0.89629
C          3.81484        -8.00143         0.58359
C          5.02769        -7.16850         0.20228
C          6.18541        -7.75316        -0.57804
C          7.52396        -7.09418        -0.45507
C         -6.31764        -9.35268         0.12537
C         -5.18211       -10.05880        -0.04612
C         -3.84565        -9.57131         0.37383
C         -2.57378       -10.10052        -0.03939
C         -1.27406        -9.57552         0.54035
C         -0.06858        -9.90103        -0.33726
C          1.15774        -9.27196        -0.13757
C          2.36806        -9.67601        -0.70987
C          3.69465        -9.30760        -0.22006
C          4.90383        -9.83758        -0.91560
C          6.08287        -9.18997        -0.95099
O          9.64590         1.28622         1.92634
O          5.12757        -7.00420        -1.26860
O          4.43698         4.77890        -1.81083
O         -4.69063         1.18590        -1.94140
O         -3.17714        -1.13021        -2.30374
O          3.76951         7.14800         1.01997
O          4.54086        -5.26094         1.90774
O         -0.91936        -7.52157         2.08792
O         -3.76516        -8.94260         1.71276
O         -3.65803         7.97352        -1.93587
O          0.07679        -1.25594         1.24732
O         -0.99441         0.06932        -1.98669
O         -1.63487        -4.06680         1.15482
O         -6.36062        -1.56766         1.18418
O         -6.03075        -3.72964        -1.99631
O          0.02488         1.26880         1.25363
O         -3.84759         4.61549         0.71999
O          0.93142         3.05496        -1.77804
O          5.77173         3.82276         1.80434
O         -9.57700         1.05312         1.94151
O          2.42100        -6.39362         2.04033
O          5.40003         1.32872        -0.69657
O         -4.86154        -6.21947         1.70549
O          0.36884         5.70194         0.54901
O          5.64646        -3.09083        -1.10395
O          0.69498        -5.96118        -0.94060
O          2.88365        -1.35940         1.86613
O         -8.58400        -2.54197        -1.59192
O         -6.30710         5.62125        -1.56995
O          0.72289        -3.44135        -1.52292
O         -4.00239        -4.97188        -1.76506
O         -7.13851         3.34102         2.13829
O          1.99931         2.58796         1.63853
O          6.92327        -0.83131        -0.96824
O         -1.46629         8.86533        -2.47250
O         -6.20277         3.18624        -1.50406
O         -1.80170         3.40848         0.73611
O          7.31976        -4.95625         1.70317
O          3.96065        -9.25755         1.24137
O          8.29039        -3.10638        -1.25409
O          0.93140         7.84492         1.56121
O         -2.04586         5.31564        -2.30881
O         -6.53981        -4.34138         1.59339
O         -6.34355         0.92478         1.52712
O          6.79912         4.19367        -1.73027
O          1.27314        -8.88679         2.14559
O         -2.40782        -6.98199        -1.12383
O          9.33941        -1.14867         2.00935
O          5.62303         7.61628        -2.24015
O          7.37248         2.87845        -1.31238
O         -6.25981         8.18238        -0.71466
O          3.26072        -3.29473        -1.15111
O         -9.68602        -1.58150         1.46207
O          2.51258         6.21928        -2.15916
H          3.27683         5.77448        -2.60657
O         -5.70514         3.33027         2.31206
H         -5.53737         2.42391         2.67891
O         -5.83397        -1.15523        -2.37650
H         -5.15164        -1.30273        -3.06665
O         -2.02936        -3.44513        -2.41817
H         -2.58889        -2.96817        -3.06918
O          5.42495        -1.59767         2.21433
H          4.61537        -1.86085         2.70788
O         -0.97486       -10.26230         1.76698
H         -0.16606        -9.79653         2.16186
O         -2.74355         1.02362         1.07245
H         -2.06466         1.53252         1.57769
O          7.25339         1.87863         2.25081
H          8.12898         1.93078         2.70295
O          3.75227         0.96946         2.56030
H          3.03764         0.42272         2.95473
O          3.38752         4.68060         1.69592
H          3.16698         4.05578         2.42238
O          3.97146         9.64812         1.44019
H          3.77959         8.78332         1.88118
O         -6.60509        -8.28577         2.23702
H         -6.34503        -7.47206         2.72497
O         -4.13810        10.43436        -0.95620
H         -3.92971        10.01407        -1.82304
O          0.79459         7.79806        -2.00722
H         -0.55131         8.96565        -2.82479
H         12.21932        -1.18030         0.16245
H         12.19711         1.21860        -0.14700
H         11.00661         3.58075         0.19946
H          9.76357         5.71710         0.14279
H          8.54970         7.75526        -0.52872
H          7.27285         9.93802        -0.99123
H          5.25951        11.16733        -0.43208
H          2.63808        11.04002        -0.90168
H          0.07938        11.10662        -0.11866
H         -2.13247        10.79474         0.95975
H         -4.30546        10.56233         1.94075
H         -6.29776         9.29596         2.46531
H         -8.10875         7.51059         1.78095
H         -9.69717         5.58086         0.95511
H        -10.92419         3.42087         0.23874
H        -12.03895         1.31874        -0.30459
H        -12.02523        -1.06666        -0.79656
H        -10.67340        -3.13902        -1.31459
H         -9.86556        -5.68878         0.03847
H         -8.58780        -7.74319         0.39112
H         -7.26371        -9.80124        -0.21562
H         -5.22025       -11.03272        -0.55815
H         -2.53815       -10.87515        -0.82123
H         -0.04717       -10.92567        -0.74746
H          2.34128       -10.16664        -1.69764
H          4.83400       -10.86490        -1.30475
H          6.96757        -9.67637        -1.38765
H          8.41919        -7.72513        -0.56030
H          9.36767        -5.63774         1.30459
H         11.01277        -3.46300         0.93052
