         404
 CSIRO Nanostructure Databank - Neutral Graphene Oxide Data Set
C          1.96370         4.81246        -4.77705
C          0.68845         5.23315        -4.38830
C          1.64701         7.12575        -3.19309
C          0.52582         6.38289        -3.62061
C          1.51289         8.37835        -2.44924
C          0.27048         9.03196        -2.32480
C          1.28696        10.93089        -1.15986
C          0.15770        10.27116        -1.71002
C          1.22234        12.28367        -0.67751
C         -0.03110        12.97260        -0.48931
C          1.09063        15.12121        -0.02937
C         -0.10851        14.27168        -0.08797
C          1.06456        16.48855         0.54813
C         -0.14410        17.18694         0.66848
C          1.04267        19.22406         1.26348
C         -0.15363        18.54114         0.99126
C          1.05108        20.71616         1.35632
C         -0.18558        21.49851         1.49281
C          1.08110        23.57914         1.89557
C         -0.15181        22.84159         1.67895
C          1.09565        25.03737         1.96249
C         -0.10502        25.78743         1.70091
C          1.04385        27.95512         1.95796
C         -0.12806        27.14644         1.61823
C          1.11589        29.38676         1.57575
C         -0.07368        30.11132         1.40005
C          1.16835        32.15755         1.01766
C         -0.05582        31.47353         1.13189
C          1.20659        33.60016         0.74986
C          0.08270        34.41310         0.89371
C          1.23372        36.42445         0.13164
C          0.10451        35.81159         0.63330
C          1.32140        37.83004        -0.21639
C          4.45702         5.09020        -4.89179
C          3.10031         5.52020        -4.36344
C          4.12394         7.35638        -3.01054
C          2.93885         6.66294        -3.55305
C          3.94098         8.38026        -1.95714
C          2.66126         8.99407        -1.85451
C          3.70429        10.85664        -0.60618
C          2.54346        10.25112        -1.18494
C          3.61776        12.20394        -0.14511
C          2.42200        12.92694        -0.27621
C          3.61920        15.07088         0.48199
C          2.42927        14.39083        -0.07329
C          3.54699        16.42152         0.81243
C          2.28636        17.14413         0.86769
C          3.48825        19.14797         1.82854
C          2.26300        18.51131         1.25659
C          3.46770        20.59862         2.24518
C          2.31353        21.43409         1.78395
C          3.49781        23.58130         2.46086
C          2.24852        22.86868         2.12319
C          3.56437        25.02166         2.15755
C          2.32216        25.71823         2.05219
C          3.62385        27.87864         1.82259
C          2.35837        27.18897         2.13244
C          3.62644        29.27453         1.54386
C          2.37109        30.03873         1.45718
C          3.65101        32.15995         1.03582
C          2.37355        31.42801         1.15751
C          3.65675        33.49879         0.40004
C          2.44431        34.18783         0.31496
C          3.70469        36.26203        -0.45400
C          2.40921        35.58408        -0.15686
C          3.82477        37.75721        -0.26046
C          2.50008        38.44694        -0.48354
C          6.85937         4.94633        -4.14883
C          5.62941         5.51089        -4.03153
C          6.48572         6.94446        -2.12705
C          5.46614         6.72501        -3.19707
C          6.30853         8.11200        -1.16312
C          5.05296         8.90981        -1.26388
C          6.18290        10.78746        -0.10317
C          4.94190        10.14290        -0.59691
C          6.06369        12.07197         0.65220
C          4.76252        12.83528         0.54762
C          6.01458        14.89504         1.10361
C          4.82177        14.30233         0.69178
C          6.10364        16.36233         1.13556
C          4.80599        17.15851         1.02537
C          6.01058        19.14934         1.84018
C          4.80438        18.51079         1.60406
C          6.05162        20.55521         2.31674
C          4.77104        21.29869         2.52663
C          6.04887        23.50758         2.22183
C          4.80063        22.80195         2.55972
C          6.02846        24.90629         2.12467
C          4.80694        25.68024         2.10190
C          6.04144        27.78930         1.53417
C          4.82788        27.12390         1.83254
C          6.06276        29.15657         1.17797
C          4.85879        29.90052         1.23347
C          6.14775        31.95603         0.46630
C          4.92761        31.36280         1.05072
C          6.11969        33.33052         0.02488
C          4.90820        34.07721        -0.00432
C          6.09150        36.07297        -0.89405
C          4.95492        35.47031        -0.40231
C          6.11603        37.49084        -1.26202
C          4.99440        38.29080        -1.04262
C          9.30208         4.96116        -3.64554
C          8.01941         5.44819        -3.41673
C          8.88588         6.83708        -1.56808
C          7.82744         6.41717        -2.38467
C          8.67021         7.82181        -0.52306
C          7.50660         8.59696        -0.44528
C          8.54531        10.66468         0.86056
C          7.47252        10.00384         0.05921
C          8.53654        12.05998         1.08834
C          7.29894        12.81093         0.98610
C          8.32310        14.80124         2.14377
C          7.22131        14.14480         1.33522
C          8.46955        16.29614         1.90899
C          7.30686        17.03323         1.66497
C          8.49922        19.15282         2.01396
C          7.27714        18.45110         1.79258
C          8.51060        20.59568         2.02390
C          7.29624        21.33286         2.10233
C          8.52025        23.43873         1.85214
C          7.27592        22.74427         2.06662
C          8.54901        24.85048         1.74345
C          7.32381        25.61076         2.02955
C          8.53851        27.68223         1.11080
C          7.32891        27.10247         1.71438
C          8.46938        29.00214         0.57157
C          7.30637        29.78068         0.72788
C          8.62517        31.86675         0.16615
C          7.29850        31.18184         0.38770
C          8.50490        33.19346        -0.56572
C          7.31483        33.90611        -0.53350
C          8.51326        35.90304        -1.53099
C          7.21249        35.18247        -1.34037
C          8.52844        37.28517        -1.87965
C          7.31813        38.03516        -1.79834
C         11.71323         4.92064        -3.12225
C         10.41683         5.42166        -2.88135
C         11.32807         6.82422        -1.04839
C         10.21085         6.37324        -1.82710
C         11.10759         7.73892         0.06293
C          9.80082         8.03320         0.34659
C         10.95467        10.57768         1.41535
C          9.69156         9.98553         1.31380
C         10.96867        11.98909         1.55027
C          9.72319        12.67708         1.55563
C         10.95437        14.77039         2.26858
C          9.65033        14.03571         2.11951
C         10.90752        16.24597         2.31086
C          9.70861        16.97092         2.16958
C         10.94220        19.14385         2.24638
C          9.71880        18.42483         2.14900
C         10.95993        20.54076         2.10002
C          9.75476        21.28601         1.98229
C         10.96435        23.43733         1.67588
C          9.75170        22.71928         1.83519
C         10.99399        24.82320         1.44072
C          9.75430        25.54740         1.46623
C         11.01490        27.65259         0.94073
C          9.73533        26.94927         1.16545
C         10.97833        28.97385         0.18352
C          9.60005        29.45702        -0.33628
C         10.49386        31.53010        -1.37221
C          9.58669        30.95820        -0.54717
C         10.78922        32.94388        -1.45548
C          9.67682        33.76132        -1.17227
C         10.92279        35.74292        -1.93922
C          9.70223        35.15787        -1.54403
C         10.95646        37.11459        -2.34365
C          9.75599        37.86824        -2.28322
C         14.07280         4.66883        -2.45483
C         12.79436         5.26492        -2.28041
C         13.61562         6.44374        -0.21541
C         12.57545         6.22163        -1.23526
C         13.56273         7.67833         0.65165
C         12.22450         8.30009         0.91851
C         13.48846        10.55529         1.32553
C         12.21315         9.73640         1.61995
C         13.47876        11.95297         1.55614
C         12.22893        12.69474         1.73109
C         13.46560        14.80821         2.12249
C         12.22962        14.06622         1.97233
C         13.43575        16.16996         2.40208
C         12.17443        16.91130         2.59298
C         13.50197        19.10666         2.29423
C         12.20671        18.44168         2.56625
C         13.51958        20.48852         2.00755
C         12.25140        21.25235         2.14657
C         13.46199        23.34302         1.30074
C         12.23841        22.72033         1.86965
C         13.49620        24.80651         1.21367
C         12.26179        25.51585         1.22654
C         13.50928        27.55302         0.65255
C         12.28261        26.89975         0.95749
C         13.50140        28.87768         0.09104
C         12.27605        29.41171        -0.38943
C         13.45610        31.35725        -1.35249
C         12.37236        30.46710        -1.30853
C         13.32203        32.73719        -1.78611
C         12.08861        33.46302        -1.77159
C         13.42273        35.56634        -2.45696
C         12.15429        34.93945        -1.86536
C         13.34515        36.92674        -3.04491
C         12.16065        37.67944        -2.86074
C         16.36937         4.25288        -1.70209
C         15.13880         4.85991        -1.54065
C         16.09670         6.35086         0.31494
C         14.90368         5.70744        -0.33126
C         16.05106         7.82983         0.52171
C         14.80836         8.47894         0.75358
C         15.94553        10.64262         1.04594
C         14.73571         9.89422         1.04750
C         15.95121        12.01336         1.40812
C         14.71106        12.68649         1.64012
C         15.94830        14.75337         2.16719
C         14.72594        14.08571         1.97822
C         15.97374        16.17278         2.57968
C         14.67387        16.92925         2.66520
C         15.95050        19.05402         2.21630
C         14.71225        18.38850         2.39430
C         15.97001        20.45761         1.95461
C         14.73971        21.15790         1.82285
C         15.98564        23.35264         1.42734
C         14.75012        22.56786         1.36080
C         15.98835        24.72143         1.14415
C         14.73523        25.44813         1.00936
C         15.97636        27.50357         0.39739
C         14.74566        26.84204         0.71175
C         15.95467        28.86400        -0.00008
C         14.72842        29.53494        -0.24094
C         15.88645        31.51852        -1.22884
C         14.70460        30.83993        -0.87033
C         15.83196        32.69881        -2.03014
C         14.55378        33.38763        -2.18052
C         15.65061        35.14434        -3.57011
C         14.52833        34.66346        -2.75719
C         15.64076        36.62321        -4.00596
C         14.47291        37.45022        -3.67021
C         18.73483         3.80144        -1.03409
C         17.37754         4.26534        -0.57053
C         18.61223         6.49647        -0.00649
C         17.40857         5.65167         0.09843
C         18.52810         7.88189         0.30501
C         17.26570         8.53236         0.53425
C         18.48037        10.68468         0.97050
C         17.21149        10.03612         0.48260
C         18.45322        12.02994         1.42068
C         17.19948        12.72088         1.57040
C         18.44082        14.76486         2.19951
C         17.20220        14.08269         1.97094
C         18.46411        16.18683         2.72501
C         17.21664        16.94920         2.40949
C         18.45929        19.06464         2.19852
C         17.21020        18.33396         2.30330
C         18.45081        20.48315         1.99635
C         17.21346        21.17014         1.89553
C         18.54208        23.38530         1.56176
C         17.19465        22.63813         1.83468
C         18.47361        24.72295         0.95971
C         17.23676        25.42978         0.91286
C         18.44736        27.41726         0.06182
C         17.22092        26.78333         0.47490
C         18.46509        28.79138        -0.32044
C         17.22560        29.57281        -0.19571
C         18.39705        31.46028        -1.51643
C         17.18871        30.96996        -0.84207
C         18.31196        32.66256        -2.27750
C         17.02682        33.25808        -2.53577
C         18.24332        35.17874        -3.76841
C         16.95228        34.41485        -3.45086
C         18.14663        36.63237        -4.05164
C         16.93990        37.27927        -4.18183
C         19.84344         4.55655        -0.95315
C         20.97580         6.72869        -0.53717
C         19.81505         5.93596        -0.48194
C         20.93884         8.05116        -0.10584
C         19.73707         8.64296         0.31667
C         20.90602        10.66609         1.18483
C         19.70439        10.01416         0.81320
C         20.89273        11.97318         1.61968
C         19.67860        12.69363         1.72096
C         20.89017        14.80612         2.29407
C         19.66364        14.08605         2.09761
C         20.91882        16.18495         2.37206
C         19.72655        16.93956         2.40575
C         20.91649        19.08872         2.08691
C         19.69796        18.35179         2.24887
C         20.91333        20.43455         1.84206
C         19.69815        21.18159         1.76551
C         20.86067        23.16470         0.78423
C         19.72690        22.54840         1.37745
C         20.84229        24.48379         0.38118
C         19.66366        25.29101         0.44721
C         20.84152        27.31910        -0.41872
C         19.65922        26.66663         0.01496
C         20.83360        28.64106        -0.81216
C         19.64287        29.41482        -0.78695
C         20.79121        31.37848        -1.86290
C         19.61862        30.76858        -1.35111
C         20.74617        32.62351        -2.46790
C         19.52523        33.29707        -2.69605
C         20.62583        35.46653        -3.21694
C         19.51121        34.64889        -3.22704
C         20.56297        36.81280        -3.68287
C         19.37727        37.38232        -4.06746
O          3.18062        19.57179         3.22681
O          2.87784        35.81040        -1.56495
O          9.54000         8.62621         1.57931
O          1.89431        15.08146        -1.25813
O         13.87982         5.21518         0.57451
O         13.16033        35.56884        -1.00361
O         10.28858        14.12818         3.44269
O          1.61408        27.71093         3.28386
O          7.52049        26.61539         3.08506
O          4.47950        32.10400         2.25484
O         12.37935        22.23714         3.25131
O          5.48373        20.73537         3.66725
O         15.35271        16.47053         3.89510
O          2.00049        21.25030         0.35222
O         15.30957        35.51707        -4.93697
O         17.36026        30.79131         0.60776
O          5.98054         6.71221        -0.77807
O         12.80588         7.35886         1.88114
O          5.10420         7.88550        -4.02047
O          7.21141        10.87689        -1.14055
O         17.95165        23.29620         2.89337
O          4.11380        23.27929         3.76302
O         12.16987        17.72196         3.83284
O         11.07374        28.95145         1.63222
O         16.74807         5.63243         1.41263
O         13.98603        22.69935         0.08671
O          5.11589        12.06019         1.76294
O          5.70476        16.99888        -0.13140
O         17.62965        34.25704        -4.72979
O         11.29118        30.68981        -2.17069
O          4.48941         3.68316        -5.13931
H          4.41318         3.21553        -4.28275
O          7.81037        14.71735         3.50826
H          8.59886        14.64774         4.09901
O          6.82426        34.74885        -2.70614
H          5.88814        34.45617        -2.66402
O         17.14810        10.35414        -0.97588
H         17.19882        11.33102        -1.05617
O         18.45293        16.06088         4.20558
H         17.51766        15.94790         4.48809
O          9.37105        28.79099        -1.60753
H          9.96656        29.22078        -2.26538
O          9.17048        32.15247         1.49300
H          8.47705        32.60937         2.01415
O          4.15175        37.93412         1.16458
H          4.34034        38.88437         1.31383
O         16.90976         3.29094         0.39234
H         16.47346         3.79928         1.11956
O         12.26818         9.50249         3.04220
H         12.66866         8.60726         3.17204
H          2.08868         3.91930        -5.40501
H         -0.19459         4.66242        -4.70763
H         -0.48805         6.69930        -3.34140
H         -0.63071         8.58228        -2.76321
H         -0.82470        10.76174        -1.69245
H         -0.96293        12.39673        -0.58049
H         -1.08642        14.69834         0.17572
H         -1.09510        16.68945         0.43600
H         -1.11216        19.07629         0.99961
H         -1.15682        20.98603         1.45602
H         -1.10715        23.37920         1.74442
H         -1.02773        25.24308         1.46074
H         -1.03595        27.64258         1.24782
H         -1.04268        29.60597         1.50710
H         -1.00723        32.00896         1.01608
H         -0.85836        33.97963         1.25889
H         -0.80151        36.40218         0.83161
H          0.38222        38.40309        -0.26729
H          4.58647         5.58810        -5.89428
H          2.50860        39.51628        -0.74678
H          7.00196         4.08986        -4.82504
H          5.02983        39.36119        -1.29903
H          9.46692         4.19341        -4.41575
H          7.33518        39.09979        -2.07671
H         11.87095         4.19692        -3.93519
H          9.77518        38.92753        -2.57887
H         14.22508         3.98645        -3.30427
H         12.13753        38.71675        -3.22662
H         16.54211         3.59941        -2.57096
H         14.48666        38.51238        -3.95837
H         18.79295         2.76940        -1.40995
H         16.94045        38.37567        -4.28618
H         20.81310         4.15562        -1.28526
H         21.91552         6.29172        -0.90285
H         21.86448         8.64130        -0.13352
H         21.86400        10.13330         1.12780
H         21.84550        12.44671         1.88700
H         21.84714        14.27003         2.27267
H         21.89724        16.68455         2.36100
H         21.88063        18.56972         2.16012
H         21.87378        20.95506         1.73070
H         21.78274        22.58565         0.63914
H         21.76031        24.90473        -0.04886
H         21.79233        26.77125        -0.44845
H         21.77612        29.08845        -1.15295
H         21.76668        30.88717        -1.75425
H         21.68628        33.07786        -2.80928
H         21.58355        35.09614        -2.82633
H         21.48337        37.41293        -3.68246
H         19.33938        38.43988        -4.36598
