         272
 CSIRO Nanostructure Databank - Neutral Graphene Oxide Data Set
C        -11.19512         0.58894        -1.02562
C         -9.91077         1.36176        -1.26744
C         -8.69403         0.61490        -0.67995
C         -7.46243         1.40288        -0.42340
C         -6.41817         0.79445         0.48158
C         -5.06965         1.45139         0.40751
C         -3.93217         0.61024        -0.08242
C         -2.66200         1.33393        -0.40606
C         -1.34635         0.60189        -0.38313
C         -0.15146         1.36011         0.16425
C          1.13247         0.64445         0.48677
C          2.41548         1.42955         0.71783
C          3.82353         0.74528         0.85280
C          4.91080         1.37116        -0.03691
C          6.22018         0.65411        -0.11385
C          7.50331         1.42641        -0.23982
C          8.80507         0.69873        -0.25077
C          9.94232         1.38915        -0.98231
C         11.24050         0.60924        -0.85078
C         -9.95071         2.81423        -0.79773
C         -8.83437         3.57130        -0.61360
C         -7.47641         2.91069        -0.81589
C         -6.35802         3.66423         0.56535
C         -5.05571         2.94540         0.30504
C         -3.94401         3.61350        -0.45111
C         -2.65951         2.84896        -0.56148
C         -1.40279         3.62300        -0.28052
C         -0.15947         2.87610         0.09925
C          1.16638         3.58395        -0.19336
C          2.37873         2.89909         0.44589
C          3.65422         3.61523         0.09843
C          4.91144         2.87602        -0.20608
C          6.22202         3.62894        -0.35064
C          7.49827         2.89218        -0.58705
C          8.82364         3.58149        -0.46416
C          9.96606         2.86987        -0.62418
C         -8.89033         4.99701        -0.26363
C         -7.77510         5.72765        -0.00829
C         -6.42214         5.15406         0.32326
C         -5.26660         5.82446        -0.41223
C         -3.94536         5.11667        -0.61460
C         -2.64048         5.85013        -0.76259
C         -1.28945         5.08653        -0.77527
C         -0.19731         5.80714         0.01810
C          1.10373         5.05320         0.26239
C          2.38569         5.80204         0.49690
C          3.70750         5.06008         0.48569
C          5.02141         5.76926         0.49475
C          6.37446         5.00814         0.33820
C          7.49799         5.79550        -0.31749
C          8.85690         5.09968        -0.26444
C         -7.43710         6.89875         0.89657
C         -6.57056         7.99516         0.18415
C         -5.27609         7.32220        -0.32247
C         -3.92457         7.94679        -0.05572
C         -2.65711         7.35800        -0.63127
C         -1.39569         8.09466        -0.36762
C         -0.19552         7.30312         0.07896
C          1.11944         8.03785         0.12643
C          2.41709         7.30244         0.30551
C          3.73515         8.03953         0.49831
C          5.01140         7.26888         0.32148
C          6.00640         7.77342        -0.71369
C          7.36176         7.09876        -0.64126
C         -6.31403         9.26111         0.97192
C         -5.12885         9.88862         1.06662
C         -3.83921         9.25370         0.67667
C         -2.58603        10.05776         0.54812
C         -1.43235         9.51313         0.10091
C         -0.15934        10.27148        -0.21917
C          1.13308         9.57824         0.33825
C          2.38251         9.96107        -0.40835
C          3.69719         9.58916         0.17821
C          4.93422        10.03974        -0.57539
C          6.01004         9.27945        -0.83020
C        -11.20945        -0.74909        -0.91149
C         -9.89609        -1.50748        -0.88865
C         -8.98095        -0.68210         0.06956
C         -7.74205        -1.45529         0.55946
C         -6.47013        -0.66955         0.78324
C         -5.16807        -1.43781         0.95887
C         -3.93582        -0.86257         0.27169
C         -2.64634        -1.63071         0.08314
C         -1.35957        -0.90145        -0.27363
C         -0.01648        -1.60891        -0.09314
C          1.24128        -0.80301         0.10717
C          2.50795        -1.53224         0.46276
C          3.78295        -0.79408         0.72932
C          5.10740        -1.53255         0.64222
C          6.35220        -0.77350         0.35747
C          7.53736        -1.52387        -0.19159
C          8.84240        -0.79860        -0.10247
C         10.10769        -1.55391        -0.31248
C         11.29576        -0.72676        -0.67622
C         -9.94795        -2.98376        -0.57793
C         -8.83935        -3.68535        -0.12362
C         -7.71796        -2.95906         0.55664
C         -6.43688        -3.72113         0.83875
C         -5.17174        -2.93631         1.10224
C         -3.82929        -3.68467         1.09618
C         -2.54134        -2.98192         0.74313
C         -1.27707        -3.79516         0.57172
C         -0.00274        -3.09007         0.24613
C          1.29524        -3.59719         0.92385
C          2.44173        -3.01199         0.05915
C          3.79874        -3.68727         0.05430
C          5.10324        -2.98304         0.21986
C          6.38893        -3.82054         0.30965
C          7.56779        -3.01752        -0.23461
C          8.87653        -3.73363        -0.32162
C         10.03139        -3.03796        -0.48661
C         -8.72419        -5.08038        -0.37265
C         -7.49908        -5.80108        -0.28001
C         -6.33623        -5.15190         0.39669
C         -4.97527        -5.72811         0.10668
C         -3.82211        -5.19339         0.91885
C         -2.50931        -5.92491         0.93387
C         -1.26571        -5.11833         1.37516
C          0.08208        -5.87610         1.23390
C          1.35831        -5.11201         1.07393
C          2.64120        -5.86354         0.75588
C          3.73272        -5.18576        -0.01947
C          4.97486        -5.92806        -0.36321
C          6.29887        -5.13663        -0.57002
C          7.55276        -5.98914        -0.34251
C          8.87607        -5.25023        -0.13261
C         -7.38041        -7.08420        -0.78054
C         -6.08131        -7.81190        -1.04743
C         -4.84618        -7.05040        -0.57801
C         -3.52501        -7.81348        -0.53147
C         -2.32789        -7.17513         0.10481
C         -1.06136        -7.98014         0.28476
C          0.16937        -7.30685         0.78004
C          1.36174        -8.17553         1.28811
C          2.69048        -7.34589         0.95746
C          3.89946        -8.14229         0.51347
C          5.00615        -7.42568        -0.21988
C          6.28926        -8.17275        -0.44669
C          7.52514        -7.35007        -0.38426
C         -6.04081        -9.23684        -0.54400
C         -4.89448        -9.92038        -0.44337
C         -3.51551        -9.34408        -0.71202
C         -2.52096       -10.03860         0.27595
C         -1.12425        -9.45751         0.29441
C          0.03147       -10.17122         0.39763
C          1.34932        -9.54664         0.57927
C          2.49847       -10.24076         0.33153
C          3.85375        -9.63619         0.41181
C          5.09616       -10.31806        -0.06391
C          6.26076        -9.64998        -0.23025
O          4.01728         3.33018        -1.28106
O          3.94630        -5.64138        -1.37774
O         -3.66539        -1.64652        -0.94743
O         -6.60349        -4.82506         1.78940
O          5.29524         0.68794        -1.25556
O          0.82372        -1.17128        -1.21776
O         -3.46308         3.11170        -1.73386
O          1.94199         7.67291        -1.04352
O         -2.56414        -7.08166        -1.34064
O          2.22545         2.41789         1.78346
O         -0.68358        -3.92044        -0.74000
O          8.33146         1.31255         0.97405
O         -3.40602         5.47328        -1.93242
O          6.84987         4.69655         1.61049
O         -0.01722        -7.45317        -0.64253
O          0.90386        -5.56556         2.37959
O          1.26106        -8.38506         2.62734
O         -1.00092         3.48639         1.11557
O          6.72864         3.44883        -1.70220
O         -4.71320        -5.78918        -1.32608
O         -0.60403         6.49821         1.22695
O          4.25888        -8.95342         1.66846
O         -1.29371        -0.22477        -1.56618
O         -7.58458         0.54337        -1.61394
O          7.27661        -2.22343        -1.43530
O         -3.68909         7.97771         1.40332
O         -3.46878        -6.05737         2.03900
O         -5.15143        -2.04736         2.26747
O          4.39667         5.34080         1.73303
O         -6.51029         5.97080         1.59552
O          2.97150        -1.33010         1.82344
O         -8.12623        -2.21639         1.75261
O         -5.55222         6.65841        -1.57945
O          4.66276         7.89139         1.59927
O         -4.65341         2.26175         1.55208
O          3.14948        -6.45788         1.99761
O          5.33393        -7.92651        -1.55150
O          1.58446         5.31018         1.60443
O          9.63382        -1.19863         1.05876
O         -6.81982         3.23235        -1.87530
O         -1.92085         7.98196        -1.74026
O          6.49248        -4.84784        -1.90011
O          0.13600         0.87694         1.52251
O          4.52757        -3.12548        -1.10006
O         -6.74074         0.35696         1.82235
O         -3.54527         0.79897        -1.44670
O         -2.98343        -3.09670         2.11857
O          6.01882        -1.16370         1.72467
O          1.17713         9.84660         1.73693
H          2.11320        10.04882         1.99514
O         -7.32775         8.43101        -0.96282
H         -7.13142         7.80042        -1.69536
O         -0.06092        10.37491        -1.64238
H         -0.57635         9.65316        -2.06363
O          3.78846        10.24160         1.47882
H          4.44672         9.72370         2.00465
O         -6.94312         3.32267         1.75085
H         -6.43413         2.58802         2.17604
O          6.65309        -4.18886         1.67479
H          6.64542        -3.37117         2.22281
O         -9.73902         1.37399        -2.70974
H         -8.79810         1.61335        -2.88610
O          9.25701        -5.50521         1.23354
H          8.55792        -5.11735         1.80861
O         -0.84770         5.05918        -2.14571
H         -1.65538         4.98447        -2.71109
O          9.75655         5.68949        -1.20613
H          9.46715         5.43460        -2.10612
O          4.29425         1.02804         2.17341
H          3.70863         0.57162         2.81576
O         -3.11945        -9.64456        -2.05471
H         -2.59993        -8.87939        -2.39059
O          9.57935         1.29830        -2.39459
H         10.29756         1.70219        -2.92468
O          1.28616        -3.03495         2.23454
H          0.97447        -3.73737         2.85725
O          1.98814        -3.23657        -1.28035
H          2.73801        -3.10619        -1.90270
O          5.38045         7.29073        -1.95298
H          6.02831         7.38226        -2.68311
O          1.37836         3.52973        -1.61035
H          0.67839         4.05350        -2.07568
O         -3.08358        -9.84856         1.58435
H         -2.47209       -10.22621         2.25027
O         -1.36220        -4.82100         2.76428
H         -2.25063        -5.10161         3.08854
O         -9.73438        -0.30663         1.23361
H         -9.54135        -0.96793         1.93866
O         -9.32419        -1.48368        -2.22308
H         -9.53099        -0.61132        -2.64257
O         -6.00578        -7.87283        -2.49761
H         -5.65620        -7.00681        -2.80542
H         12.27395        -1.23313        -0.70365
H         12.17469         1.15581        -1.06011
H         10.93710         3.38925        -0.58557
H          9.28053         5.30010         0.75556
H          8.23677         7.65609        -1.01567
H          6.89402         9.74490        -1.29542
H          4.99101        11.12292        -0.76662
H          2.28633        10.20447        -1.47888
H         -0.19932        11.30469         0.20836
H         -2.62703        11.12197         0.82735
H         -5.07347        10.86817         1.56619
H         -7.21543         9.77407         1.34166
H         -8.23019         7.30935         1.56191
H         -9.88515         5.46642        -0.20345
H        -10.94129         3.29403        -0.72490
H        -12.13944         1.15442        -1.04417
H        -12.15952        -1.29386        -0.80156
H        -10.76384        -3.56013        -1.04519
H         -9.57858        -5.58584        -0.84935
H         -8.27266        -7.54188        -1.23746
H         -6.99876        -9.73705        -0.33644
H         -4.92879       -10.97583        -0.13160
H         -2.48018       -11.13603         0.03198
H         -0.00637       -11.27135         0.33196
H          2.43031       -11.26070        -0.08133
H          5.09612       -11.41901        -0.06342
H          7.18967       -10.20940        -0.41955
H          8.47177        -7.89273        -0.22449
H          9.66848        -5.70566        -0.77903
H         10.98272        -3.58335        -0.59463
