         480
 CSIRO Nanostructure Databank - Neutral Graphene Oxide Data Set
C         37.60497        50.09875         1.37416
C         36.38643        50.76603         1.44450
C         37.48446        52.82497         0.82533
C         36.31959        52.13243         1.15881
C         40.15415        48.64967         1.12650
C         40.07485        50.08105         0.94126
C         38.79423        50.78012         1.02725
C         39.95101        52.95623         0.36208
C         38.72384        52.17499         0.77870
C         40.03934        54.34077         0.96452
C         42.62538        48.64190         0.95434
C         41.32873        47.96842         1.13682
C         42.61749        50.17207         0.96891
C         41.25540        50.80813         0.73201
C         42.46041        52.93807         0.51001
C         41.24431        52.21217         0.57812
C         42.47131        54.35357         0.66038
C         41.21987        54.99399         1.03461
C         44.89048        45.80883        -0.38262
C         43.75474        46.44197         0.02544
C         44.88122        48.62220        -0.32043
C         43.79497        47.87586         0.40039
C         44.79365        50.10257        -0.50007
C         43.68428        50.84638         0.12202
C         44.87581        53.01061        -0.07747
C         43.68787        52.23821         0.17029
C         44.90706        54.37934         0.18156
C         43.68942        55.07666         0.53600
C         44.93961        57.18072         0.53490
C         43.75471        56.48646         0.69212
C         47.42342        44.35069        -0.89413
C         47.36248        45.78379        -0.77215
C         46.16969        46.45929        -0.50727
C         47.28285        48.58880        -1.17786
C         46.24754        47.95708        -0.24310
C         47.32305        50.11908        -1.10333
C         46.02500        50.86694        -0.91098
C         47.39282        52.98918        -0.36336
C         46.08112        52.34176        -0.61755
C         47.38102        54.40721        -0.05868
C         46.16632        55.10407         0.10373
C         47.40694        57.26267         0.15048
C         46.16804        56.52839         0.25608
C         47.43638        58.68544         0.25146
C         49.87996        44.32891        -0.86514
C         48.60841        43.66698        -0.92316
C         49.87939        45.78443        -0.84344
C         48.62472        46.52208        -0.83034
C         49.83524        48.67161        -0.75938
C         48.62016        47.91106        -0.91683
C         49.83078        50.05129        -0.58344
C         48.61540        50.85437        -0.81647
C         49.82823        52.94849         0.12881
C         48.57116        52.27277        -0.38476
C         49.83224        54.42534        -0.14316
C         48.64027        55.12391        -0.07670
C         49.87452        57.28903         0.02139
C         48.63589        56.57597        -0.01426
C         49.87579        58.70824         0.18314
C         48.62171        59.37956         0.26101
C         52.27458        41.47871        -0.51004
C         51.12035        42.18166        -0.48675
C         52.35842        44.28448        -0.83633
C         51.08837        43.60526        -0.78316
C         52.35832        45.75797        -1.17124
C         51.07855        46.47991        -0.82242
C         52.28954        48.58737        -0.57699
C         51.08940        47.91571        -0.68715
C         52.30776        50.06500        -0.62522
C         51.08083        50.74813        -0.07401
C         52.32615        52.95264        -0.24047
C         51.10390        52.24602        -0.24177
C         52.36204        54.38611        -0.14778
C         51.10817        55.14518        -0.48704
C         52.33754        57.25860         0.12038
C         51.12087        56.58878        -0.04882
C         52.35471        58.69772         0.24939
C         51.11916        59.41604         0.25321
C         52.35105        61.51251         0.46504
C         51.16188        60.83730         0.35929
C         54.87696        40.00375        -0.72223
C         54.80974        41.37765        -0.63402
C         53.54623        42.10499        -1.03110
C         54.83307        44.29284        -0.66966
C         53.56280        43.59597        -0.76881
C         54.81108        45.74234        -0.59687
C         53.60581        46.43382        -0.68164
C         54.87937        48.63388        -0.36795
C         53.54650        47.85085        -0.37809
C         54.87353        50.09620        -0.51931
C         53.60158        50.81915        -0.58805
C         54.80489        52.94200        -0.14344
C         53.58377        52.25785        -0.29787
C         54.81691        54.36145         0.07459
C         53.57767        55.07786         0.03559
C         54.79409        57.19494         0.41640
C         53.58874        56.52239         0.17666
C         54.82782        58.65321         0.48249
C         53.58536        59.39538         0.35152
C         54.83502        61.53275         0.57533
C         53.60328        60.82418         0.46369
C         54.90518        62.93556         0.71525
C         57.31750        39.97042        -0.39849
C         56.07870        39.28825        -0.52022
C         57.30093        41.37001        -0.33263
C         56.01293        42.13561        -0.14186
C         57.28277        44.33339        -0.46149
C         56.04499        43.60456        -0.53561
C         57.28800        45.72359        -0.42672
C         56.06033        46.46508        -0.47140
C         57.35616        48.57759        -0.81530
C         56.09697        47.86153        -0.56286
C         57.34268        50.12212        -0.62141
C         56.05707        50.80925        -0.38317
C         57.26426        52.89374         0.23893
C         56.03892        52.21284        -0.14970
C         57.30676        54.35846         0.22514
C         56.05877        55.05929         0.22641
C         57.27246        57.14206         0.63915
C         56.03988        56.46922         0.44180
C         57.22590        58.57300         1.16096
C         56.01893        59.32381         0.67802
C         57.35417        61.50182         0.88865
C         56.12873        60.79001         0.35756
C         57.36082        62.90510         0.93009
C         56.11124        63.60381         0.82313
C         59.93645        37.20372        -0.82764
C         58.69336        37.91362        -0.76516
C         59.84289        39.95759        -0.04692
C         58.59763        39.24253        -0.41862
C         59.85598        41.48308         0.03682
C         58.56609        42.10382        -0.46825
C         59.87235        44.28999        -0.29480
C         58.57502        43.60478        -0.53465
C         59.85648        45.72707         0.00017
C         58.53026        46.47959        -0.12982
C         59.83073        48.57632        -0.49016
C         58.62073        47.89350        -0.49925
C         59.83266        50.05160        -0.69578
C         58.60029        50.77389        -0.35106
C         59.85467        52.94149        -0.00910
C         58.63323        52.12949         0.15250
C         59.83852        54.31899         0.09002
C         58.54560        55.03843         0.26984
C         59.73664        57.24076         0.38116
C         58.47847        56.44363         0.49611
C         59.73221        58.54493         1.18096
C         58.51066        59.35079         1.06053
C         59.78346        61.47742         1.40021
C         58.55929        60.76192         1.13551
C         59.83538        62.89790         1.26630
C         58.61086        63.61969         1.07023
C         59.86116        65.72177         0.98495
C         58.66781        65.03215         0.96056
C         62.43082        35.71238        -0.25047
C         62.43672        37.11591        -0.61937
C         61.14915        37.82046        -0.63497
C         62.39285        40.03217        -0.45713
C         61.15730        39.24226        -0.24613
C         62.36038        41.39485        -0.46653
C         61.05198        42.13481        -0.76014
C         62.31592        44.36252        -0.32784
C         61.07852        43.63073        -0.44705
C         62.31669        45.74193        -0.14018
C         61.10116        46.49613        -0.11701
C         62.31835        48.66320        -0.16758
C         61.07437        47.90146        -0.20333
C         62.35872        50.01291        -0.37874
C         61.12248        50.79485        -0.59360
C         62.39419        52.94311        -0.34569
C         61.15485        52.17118         0.05448
C         62.33949        54.40778        -0.28128
C         61.11464        55.04998        -0.01224
C         62.03934        57.43823         0.21782
C         61.02657        56.42750         0.63830
C         62.23224        58.62041         0.85162
C         61.02540        59.23485         1.47000
C         62.34357        61.43624         1.63404
C         61.03082        60.71870         1.68051
C         62.32818        62.94014         1.61799
C         61.06967        63.63826         1.33649
C         62.35525        65.77779         1.05467
C         61.11055        65.05018         1.14427
C         62.39250        67.20690         0.88873
C         64.88076        35.59599        -0.35371
C         63.57279        35.02355        -0.00923
C         64.91411        37.07428        -0.70377
C         63.63044        37.81015        -0.69655
C         64.87542        39.96292        -0.28933
C         63.64800        39.30986        -0.92424
C         64.86102        41.44511        -0.10046
C         63.62877        42.16254        -0.55216
C         64.87367        44.34572        -0.02827
C         63.62229        43.66379        -0.44024
C         64.86266        45.74888         0.13337
C         63.56879        46.44880         0.19340
C         64.86582        48.65330         0.14843
C         63.56975        47.95868         0.21301
C         64.83913        50.15851         0.16232
C         63.66149        50.73065        -0.65332
C         64.86214        52.93976        -0.66882
C         63.56691        52.24438        -0.50092
C         64.89601        54.37951        -0.38973
C         63.65659        55.07236        -0.38458
C         64.93457        57.18672        -0.07635
C         63.80723        56.46373        -0.48908
C         64.78624        58.56940         0.49731
C         63.48778        59.37050         0.54477
C         64.87150        61.48461         1.11505
C         63.55978        60.77701         1.03432
C         64.86075        62.88254         1.11264
C         63.65542        63.65885         1.40176
C         64.82674        65.78129         0.93312
C         63.62955        65.10489         1.06918
C         64.89936        67.27895         1.03819
C         63.55367        67.91563         0.84384
C         67.39073        32.82534         0.00531
C         66.20768        33.46185        -0.09362
C         67.43953        35.61312        -0.24131
C         66.12381        34.94083         0.22947
C         67.42251        37.11513        -0.06860
C         66.22878        37.81052        -0.56989
C         67.38573        40.02105         0.12266
C         66.20708        39.31282        -0.42336
C         67.34560        41.46429         0.20849
C         66.13554        42.18378         0.01775
C         67.31302        44.29904         0.38333
C         66.09991        43.60147         0.09779
C         67.26465        45.75319         0.64982
C         66.03657        46.49946         0.35794
C         67.33321        48.66318         0.35668
C         66.05463        47.94354         0.32894
C         67.36003        50.08552         0.04194
C         66.16967        50.76809        -0.21359
C         67.42883        52.97272        -0.41590
C         66.17835        52.19172        -0.59444
C         67.40042        54.34019        -0.35628
C         66.13151        55.06537        -0.28087
C         67.39054        57.16667         0.26832
C         66.14986        56.46879        -0.00890
C         67.36484        58.67666         0.33517
C         66.06296        59.29273         0.81158
C         67.33196        61.46272         0.83255
C         66.07298        60.76829         0.92971
C         67.33375        62.87824         0.66164
C         66.03129        63.62371         0.53092
C         67.31500        65.74145         0.37434
C         66.14554        65.04993         1.06043
C         67.23700        67.12587         0.01068
C         66.03271        67.86883         0.21050
C         67.04948        69.77599        -0.90015
C         65.95881        69.17629        -0.25589
C         69.91999        31.34307         0.69558
C         69.74582        32.77366         0.97559
C         68.59495        33.53389         0.43761
C         69.77955        35.69074         0.77416
C         68.61565        34.91214         0.40711
C         69.71744        37.11422         0.77904
C         68.54796        37.82993         0.36138
C         69.74293        40.02234         0.78140
C         68.54206        39.30034         0.41411
C         69.77955        41.44916         0.68588
C         68.56400        42.17962         0.41490
C         69.79993        44.36024         0.46315
C         68.52764        43.60473         0.46618
C         69.82385        45.81067         0.66269
C         68.55155        46.53542         0.80437
C         69.80258        48.67197         0.51142
C         68.53882        47.98932         0.54198
C         69.82243        50.09370         0.24828
C         68.62986        50.76475        -0.04247
C         69.96903        52.92068        -0.42809
C         68.67702        52.14410        -0.68608
C         69.95618        54.43473        -0.37582
C         68.64762        55.19880        -0.56125
C         69.85058        57.25416         0.44981
C         68.60470        56.53370         0.16619
C         69.82727        58.57215         0.86274
C         68.51936        59.26920         1.15067
C         69.78235        61.45635         0.71595
C         68.55711        60.76447         0.89637
C         69.76032        62.85684         0.40613
C         68.52142        63.57176         0.43685
C         69.67317        65.65300        -0.32206
C         68.48481        65.01078         0.17288
C         69.61115        67.01743        -0.73502
C         68.36992        67.75159        -0.60120
C         69.42748        69.79999        -1.64992
C         68.25702        69.09676        -1.05629
C         69.22630        70.91440        -2.58652
C         72.31081        31.46921         1.18624
C         71.11494        30.72514         0.89197
C         72.30366        32.82595         1.26836
C         71.04543        33.58233         1.26947
C         72.22352        35.80854         0.98809
C         71.01217        35.03326         1.03149
C         72.18007        37.16078         1.09167
C         70.87222        37.83236         1.43141
C         72.03291        40.03590         1.60250
C         70.89457        39.32577         1.22296
C         72.09592        41.42413         1.45302
C         70.99925        42.13645         0.96769
C         72.25052        44.39733         1.13100
C         71.10918        43.58924         0.68830
C         72.23172        45.75430         1.03943
C         71.02169        46.50196         0.76658
C         72.22869        48.69339         0.78070
C         71.01076        47.96181         0.71857
C         72.26065        50.05917         0.62128
C         71.08706        50.80484         0.31442
C         72.30268        52.97564         0.38543
C         71.14294        52.20630         0.11911
C         72.30886        54.35887         0.39313
C         71.14124        55.14307         0.17303
C         72.31947        57.27121         0.69797
C         71.11059        56.52620         0.41126
C         72.31748        58.57679         1.05173
C         71.05057        59.33191         1.32282
C         72.19779        61.46203         0.49655
C         71.03503        60.76636         0.80016
C         72.16391        62.80980         0.09374
C         70.96481        63.52974         0.04819
C         72.02925        65.56894        -0.91859
C         70.89960        64.92512        -0.39717
C         71.96036        66.88775        -1.37110
C         70.77559        67.62429        -1.28856
C         71.69258        69.49093        -2.78933
C         70.74750        69.03560        -1.75943
C         71.48290        70.64541        -3.47527
C         70.23942        71.36237        -3.37410
O         43.71020        48.12696         1.84995
O         52.83435        50.55271        -1.89045
O         63.32746        60.46141        -0.41586
O         60.32498        58.49932         2.54979
O         44.40617        49.13910        -1.58418
O         70.51524        70.00914        -0.68620
O         63.09731        63.45551         2.75543
O         60.52875        50.62819        -1.91160
O         59.07249        46.12784         1.18420
O         63.41630        47.19017         1.46398
O         70.32741        53.72304        -1.61926
O         54.18856        48.23453         0.88461
O         57.91811        52.31644         1.42246
O         64.98820        36.02147        -1.74490
O         65.37134        58.56254         1.86051
O         57.35585        49.45784        -1.96458
O         62.72972        57.20182        -0.96038
O         45.80615        51.83175        -1.97930
O         66.46957        38.70722        -1.72191
O         60.55050        39.39546         1.11157
O         65.55948        52.52972        -1.89702
O         70.65743        43.93560        -0.65817
O         61.80852        60.98898         2.91482
O         67.80244        46.10806         1.99957
O         70.11194        33.17039         2.33166
O         60.87583        41.94373        -2.12336
O         48.09284        50.65734        -2.20857
O         63.81068        42.96067        -1.75064
O         64.62754        40.51675         1.03137
O         58.63954        42.76558        -1.76291
O         56.32841        60.81740        -1.12637
H         55.49589        60.49372        -1.53393
O         70.68711        37.65164         2.88730
H         70.68301        36.68520         3.06030
O         66.45457        64.99510         2.47571
H         66.36484        65.91712         2.81781
O         55.85421        42.20261         1.34201
H         55.88702        41.28224         1.68197
O         53.48381        41.97010        -2.50028
H         52.62901        42.35472        -2.79094
O         63.71943        39.50356        -2.35972
H         63.30732        40.36482        -2.59013
O         67.51065        59.11587        -1.04478
H         68.14657        58.52040        -1.49626
O         59.97649        41.86080         1.41489
H         60.40614        41.10325         1.88204
O         63.95739        50.43860        -2.04035
H         63.24856        50.82158        -2.59889
O         61.31500        51.86313         1.47534
H         61.33282        52.70853         1.97298
O         49.73860        52.83089         1.63205
H         48.94443        53.33698         1.91240
O         65.29061        67.54889         2.45115
H         64.51222        67.33151         3.00907
O         39.81303        53.15538        -1.09078
H         40.62499        53.61046        -1.40099
O         46.71416        48.17385         1.11364
H         46.06614        47.76456         1.72784
O         68.23186        59.05757         2.55488
H         69.01942        59.38624         3.05204
O         42.93480        50.55666         2.34842
H         43.51687        49.84792         2.70890
O         51.10532        55.21123        -1.97254
H         51.93902        55.65003        -2.24660
O         68.63650        51.83781        -2.10814
H         69.10887        52.56693        -2.57204
O         46.89241        48.25972        -2.52592
H         47.32868        48.90876        -3.12125
O         65.74348        63.75339        -0.90117
H         65.69940        62.85073        -1.28304
O         52.40421        45.79268        -2.65131
H         53.22388        45.33016        -2.93024
O         64.58938        50.56991         1.54760
H         65.00056        49.91233         2.14801
O         61.18792        56.09964         2.03565
H         61.01320        56.91538         2.57469
O         57.02156        58.41887         2.62109
H         57.88431        58.16475         3.01681
O         51.12894        50.49578         1.37151
H         50.56349        51.17813         1.81025
O         70.94598        59.46254         2.79575
H         71.19024        58.59369         3.18064
O         68.59523        55.60927        -1.96409
H         69.07688        54.91860        -2.47702
O         67.59124        35.38577        -1.66765
H         66.77387        35.72992        -2.10954
O         65.99970        35.08918         1.66399
H         66.73398        34.59281         2.08479
O         59.80194        57.69156        -1.00443
H         59.81510        56.90396        -1.58818
H         37.62494        49.02332         1.59450
H         35.47592        50.21355         1.71479
H         37.42006        53.89515         0.58431
H         35.35612        52.65927         1.19324
H         39.22643        48.07835         1.26344
H         39.11382        54.86112         1.25108
H         41.32932        46.87947         1.28519
H         41.23970        56.02904         1.40488
H         44.82283        44.73875        -0.62759
H         42.81605        45.87877         0.12219
H         44.91574        58.27157         0.65641
H         42.84383        57.05237         0.92886
H         46.48726        43.77689        -0.93514
H         46.49904        59.25086         0.33226
H         48.58041        42.57103        -1.00126
H         48.58687        60.47291         0.35222
H         52.26887        40.40859        -0.25565
H         50.19131        41.68099        -0.17750
H         52.32930        62.60704         0.54503
H         50.22941        61.41632         0.35672
H         53.98116        39.43319        -1.00852
H         53.98216        63.53090         0.74727
H         56.05452        38.19247        -0.58137
H         56.08907        64.69787         0.90689
H         59.89727        36.13858        -1.09667
H         57.78761        37.35301        -1.03593
H         59.83181        66.81186         0.86184
H         57.74346        65.60759         0.82050
H         61.46372        35.24449        -0.01850
H         61.44897        67.76489         0.81216
H         63.53562        34.02742         0.45411
H         63.49476        69.01191         0.78781
H         67.44415        31.74302        -0.17767
H         65.29240        32.90677        -0.34520
H         66.95426        70.81808        -1.23343
H         65.04991        69.77392        -0.10839
H         69.07054        30.76442         0.30653
H         68.23279        71.37879        -2.66425
H         73.26458        30.92472         1.23056
H         71.20600        29.64446         0.71312
H         73.25646        33.36966         1.33461
H         73.18898        35.29856         0.86172
H         73.11030        37.74411         1.05377
H         72.90387        39.50793         2.01272
H         73.02808        41.94417         1.71045
H         73.14990        43.89891         1.51872
H         73.13930        46.30480         1.32180
H         73.17592        48.16665         0.95336
H         73.23113        50.56871         0.67747
H         73.23204        52.46561         0.67240
H         73.24203        54.85852         0.68538
H         73.28829        56.76591         0.57890
H         73.27599        59.07528         1.25678
H         73.17540        60.96424         0.55555
H         73.11559        63.29423        -0.16263
H         72.98976        65.04173        -0.98870
H         72.87041        67.35342        -1.77261
H         72.57425        68.87623        -3.02049
H         72.22193        70.98494        -4.21490
H         70.07642        72.22085        -4.04113
