         600
 CSIRO Nanostructure Databank - Neutral Graphene Oxide Data Set
C         22.98466        27.50766         0.53579
C         22.97306        28.85033         0.25386
C         22.95448        31.69992        -0.35044
C         22.96330        33.07286        -0.50772
C         22.96804        35.98345        -0.48476
C         22.96397        37.36266        -0.43142
C         22.94306        40.27167        -0.29214
C         22.92933        41.64714        -0.22550
C         22.91610        44.57528         0.02137
C         22.92927        45.94655         0.12553
C         25.41028        24.67415         0.76533
C         24.22505        25.38636         0.79256
C         25.42645        27.45472         0.22702
C         24.20554        26.77508         0.52223
C         25.41825        28.84168        -0.08399
C         24.17179        29.55705        -0.07805
C         25.38507        31.63198        -0.89610
C         24.14767        30.94531        -0.37041
C         25.41181        33.11855        -0.62721
C         24.18822        33.81230        -0.56672
C         25.41357        35.96441        -0.48389
C         24.18017        35.25438        -0.51096
C         25.40591        37.39371        -0.42124
C         24.17067        38.09843        -0.39547
C         25.38423        40.26026        -0.34062
C         24.16208        39.54578        -0.34243
C         25.36992        41.69036        -0.32422
C         24.13483        42.39526        -0.23798
C         25.35325        44.54245        -0.20868
C         24.12402        43.83575        -0.14086
C         25.37381        45.97382        -0.10566
C         24.15308        46.67271         0.07334
C         25.35440        48.78775         0.19080
C         24.17051        48.09117         0.21216
C         27.91737        23.15653         0.75853
C         27.88540        24.55724         0.48714
C         26.64726        25.30411         0.48305
C         27.85975        27.39260        -0.09129
C         26.65522        26.71584         0.22085
C         27.88863        28.79761        -0.29450
C         26.65910        29.53280        -0.32484
C         27.89104        31.64185        -0.65368
C         26.67252        30.93006        -0.56448
C         27.89467        33.10674        -0.68320
C         26.64925        33.81873        -0.60773
C         27.88550        35.96460        -0.45538
C         26.65367        35.24791        -0.51643
C         27.87525        37.39979        -0.38253
C         26.64487        38.11221        -0.37639
C         27.85750        40.25235        -0.26122
C         26.63972        39.54523        -0.33430
C         27.86391        41.70014        -0.34431
C         26.60297        42.41822        -0.41077
C         27.79977        44.58542        -0.63869
C         26.57192        43.82336        -0.40161
C         27.84411        46.02503        -0.35033
C         26.60925        46.70775        -0.13879
C         27.85507        48.83489        -0.00374
C         26.60422        48.12010         0.01851
C         27.89524        50.25068         0.12218
C         30.34633        23.08696         0.48011
C         29.09219        22.44711         0.70581
C         30.34931        24.51366         0.26281
C         29.10817        25.20231         0.18315
C         30.41018        27.35144        -0.44569
C         29.07798        26.59813        -0.27781
C         30.39505        28.82121        -0.39480
C         29.13291        29.50655        -0.45003
C         30.38453        31.61043        -0.80938
C         29.10894        30.91497        -0.59604
C         30.38475        33.14449        -0.83860
C         29.09900        33.83508        -0.64578
C         30.37304        35.95441        -0.35218
C         29.12079        35.25321        -0.48451
C         30.34691        37.39940        -0.23327
C         29.10873        38.11111        -0.29777
C         30.32750        40.23908        -0.04388
C         29.10441        39.53856        -0.19896
C         30.30289        41.71666         0.25221
C         29.06788        42.38851        -0.27964
C         30.35857        44.57477        -0.34284
C         29.12829        43.81061        -0.58745
C         30.33467        45.98023        -0.34493
C         29.07605        46.70438        -0.30727
C         30.32883        48.84045        -0.10171
C         29.08541        48.12884        -0.13545
C         30.33258        50.25276         0.04333
C         29.08844        50.93357         0.14093
C         32.80747        20.23587         0.33145
C         31.60569        20.91517         0.35180
C         32.83073        23.03229         0.58033
C         31.55206        22.32976         0.44146
C         32.83464        24.55456         0.49572
C         31.58191        25.24511         0.16303
C         32.85454        27.36932         0.01688
C         31.63390        26.62691        -0.08868
C         32.86548        28.78792        -0.13993
C         31.62254        29.51181        -0.31726
C         32.83796        31.67743        -0.49080
C         31.64451        30.93885        -0.47848
C         32.84837        33.10742        -0.50977
C         31.64584        33.83263        -0.53502
C         32.84880        35.93837        -0.04646
C         31.60803        35.25385        -0.33352
C         32.77171        37.37569         0.28543
C         31.54052        38.11890        -0.02326
C         32.80943        40.28048         0.05161
C         31.55301        39.54372         0.03473
C         32.79982        41.71630        -0.10051
C         31.58401        42.43329        -0.10563
C         32.81609        44.56640        -0.31075
C         31.58343        43.84660        -0.23786
C         32.80843        45.99196        -0.35350
C         31.57235        46.70435        -0.29790
C         32.80814        48.83895        -0.18733
C         31.57353        48.12823        -0.20912
C         32.81486        50.26165        -0.01551
C         31.58399        50.97024         0.10006
C         32.82096        53.06003         0.33458
C         31.62394        52.37452         0.27962
C         35.38239        18.79419         0.16098
C         35.34163        20.19536         0.17887
C         34.06917        20.92171         0.26319
C         35.30995        23.06535        -0.10200
C         34.08255        22.30671         0.32711
C         35.31556        24.53091         0.25023
C         34.11812        25.24809         0.27850
C         35.30057        27.40457         0.29213
C         34.09369        26.68018         0.19656
C         35.32580        28.80954         0.10485
C         34.10299        29.48502        -0.15727
C         35.42084        31.68133        -0.34565
C         34.11173        30.92081        -0.49996
C         35.38575        33.13217        -0.15560
C         34.15546        33.87744        -0.62187
C         35.31571        35.97243         0.22886
C         34.07213        35.28376        -0.06598
C         35.33192        37.41394         0.27956
C         34.06660        38.15748         0.38109
C         35.27291        40.28441        -0.12812
C         34.04486        39.60466         0.09125
C         35.27613        41.71123        -0.31360
C         34.03717        42.42281        -0.24842
C         35.27759        44.55705        -0.43612
C         34.04316        43.84384        -0.32801
C         35.25977        45.96819        -0.51773
C         34.04832        46.70263        -0.43415
C         35.26643        48.86920        -0.30834
C         34.04920        48.14051        -0.34407
C         35.29258        50.26015        -0.05451
C         34.05290        50.97327         0.05914
C         35.31890        53.09907         0.25371
C         34.06059        52.38497         0.22269
C         35.35667        54.51209         0.34802
C         37.81794        18.77736         0.31007
C         36.58850        18.09926         0.23677
C         37.81819        20.20586         0.26119
C         36.57843        20.91926         0.21544
C         37.79869        23.06260         0.29586
C         36.59445        22.34567         0.20716
C         37.78915        24.51012         0.38247
C         36.55810        25.20207         0.38816
C         37.83371        27.40396         0.68720
C         36.51507        26.65039         0.64253
C         37.81552        28.84191         0.39372
C         36.59196        29.53406         0.18588
C         37.82983        31.67079         0.24386
C         36.62078        30.94196         0.06347
C         37.81761        33.10277         0.29202
C         36.55976        33.81561         0.15167
C         37.78188        35.94920         0.59202
C         36.52522        35.25379         0.30815
C         37.79663        37.48514         0.44214
C         36.51309        38.14630         0.19021
C         37.74452        40.22009        -0.26270
C         36.51493        39.56089        -0.06717
C         37.76262        41.64158        -0.76918
C         36.48998        42.41434        -0.49978
C         37.76216        44.55288        -0.55140
C         36.51969        43.83115        -0.52962
C         37.79576        45.94749        -0.51364
C         36.53124        46.67512        -0.71615
C         37.79933        48.84066        -0.20382
C         36.53908        48.19097        -0.59253
C         37.77664        50.23922         0.04261
C         36.54471        50.95746         0.04578
C         37.78877        53.10207         0.21630
C         36.54789        52.38546         0.18148
C         37.79338        54.52261         0.28940
C         36.55155        55.20173         0.35691
C         40.31989        16.02882         0.96580
C         39.11817        16.68725         0.77376
C         40.29797        18.77022         0.26322
C         39.07511        18.06438         0.44170
C         40.29143        20.21461         0.14547
C         39.05129        20.92812         0.24599
C         40.28066        23.07261         0.33437
C         39.05017        22.35317         0.30023
C         40.27632        24.50440         0.40453
C         39.03765        25.22621         0.45189
C         40.29718        27.35918         0.42262
C         39.07486        26.64079         0.50470
C         40.29320        28.78985         0.38052
C         39.05627        29.52167         0.34239
C         40.29627        31.65487         0.35468
C         39.05958        30.94858         0.30831
C         40.27134        33.07199         0.45658
C         39.05462        33.80330         0.43016
C         40.24958        35.99868         0.36950
C         39.07297        35.25059         0.45201
C         40.27225        37.42330         0.09169
C         39.04267        38.15259         0.06200
C         40.22952        40.26091        -0.45927
C         38.98948        39.53078        -0.26077
C         40.26387        41.63987        -0.36764
C         38.96990        42.39629        -0.17368
C         40.27847        44.54766        -0.23033
C         39.06138        43.81378        -0.73741
C         40.25642        45.93213        -0.10393
C         39.01086        46.67763        -0.28508
C         40.20115        48.76348         0.47987
C         38.98753        48.07787        -0.10427
C         40.24410        50.24843         0.21781
C         39.02888        50.95600         0.16811
C         40.26442        53.08617         0.21811
C         39.02892        52.38349         0.18897
C         40.26971        54.52074         0.25533
C         39.04794        55.24353         0.29426
C         40.28933        57.34527         0.33453
C         39.09074        56.66447         0.33336
C         42.81428        16.04855         0.94133
C         41.54826        16.70175         0.75153
C         42.78456        18.70144        -0.02052
C         41.52108        18.05594         0.34401
C         42.76843        20.24482        -0.16545
C         41.49797        20.93870         0.07381
C         42.76868        23.03454         0.30416
C         41.51987        22.35390         0.23074
C         42.75316        24.46748         0.59526
C         41.50134        25.22312         0.46526
C         42.78213        27.35438         0.28761
C         41.53357        26.63519         0.43448
C         42.76590        28.79353         0.21552
C         41.53347        29.50046         0.31866
C         42.77403        31.63926         0.29318
C         41.52954        30.92727         0.34350
C         42.77400        33.03255         0.32127
C         41.54669        33.77094         0.60646
C         42.75870        36.00725         0.09546
C         41.54440        35.31908         0.52076
C         42.72162        37.35629        -0.22901
C         41.49284        38.07965        -0.20919
C         42.74191        40.26181        -0.47586
C         41.47986        39.48777        -0.78750
C         42.74036        41.64047        -0.28382
C         41.49613        42.37640        -0.28074
C         42.73288        44.48280         0.09996
C         41.49937        43.79117        -0.12783
C         42.72965        45.92113         0.18699
C         41.49612        46.64726         0.11215
C         42.71519        48.77931         0.21388
C         41.49882        48.05320         0.20121
C         42.72537        50.21680         0.22452
C         41.48220        50.94051         0.21916
C         42.74469        53.07213         0.20166
C         41.49618        52.36774         0.20386
C         42.75185        54.50379         0.22486
C         41.51495        55.22064         0.25945
C         42.76615        57.33593         0.30135
C         41.52120        56.64287         0.29852
C         44.00798        16.70639         0.75987
C         45.26561        18.78073         0.11297
C         44.06289        18.05590         0.29512
C         45.25819        20.21734        -0.04665
C         44.03840        20.94872         0.00431
C         45.26169        23.08449         0.06418
C         44.01647        22.35635         0.17495
C         45.28505        24.49115         0.03806
C         44.08603        25.24868         0.42645
C         45.19229        27.37452        -0.42659
C         43.99152        26.66837         0.13938
C         45.24311        28.81343         0.01137
C         44.01408        29.50765         0.15209
C         45.26745        31.63217         0.26200
C         44.02814        30.92820         0.22452
C         45.29507        33.05434         0.20009
C         44.01211        33.75066         0.01142
C         45.28716        35.95536        -0.02322
C         44.00126        35.24275        -0.12380
C         45.28020        37.34729        -0.18158
C         44.01332        38.03271        -0.53355
C         45.27504        40.24966        -0.27259
C         44.01949        39.54716        -0.58793
C         45.24389        41.64530        -0.07861
C         43.98663        42.35620        -0.08792
C         45.20780        44.43371         0.48358
C         43.95075        43.74268         0.14700
C         45.20372        45.94995         0.54691
C         43.93797        46.65456         0.29551
C         45.20218        48.78328         0.21444
C         43.95288        48.06426         0.22457
C         45.19895        50.19820         0.16835
C         43.95737        50.92025         0.19061
C         45.21789        53.06645         0.14084
C         43.97010        52.35305         0.17576
C         45.22154        54.49470         0.18488
C         43.98449        55.21814         0.22878
C         43.95248        56.64680         0.26745
C         47.71617        18.80035         0.02911
C         46.54004        18.12193         0.17568
C         47.74560        20.22266        -0.17958
C         46.48986        20.93358        -0.14955
C         47.68436        23.08598        -0.39571
C         46.47949        22.36199        -0.16632
C         47.71574        24.49068        -0.41165
C         46.48782        25.21092        -0.22803
C         47.70931        27.33615        -0.20920
C         46.48660        26.62609        -0.24931
C         47.69745        28.74022         0.03122
C         46.48431        29.47749         0.14963
C         47.71465        31.63836         0.45092
C         46.50755        30.91785         0.32901
C         47.74469        33.07149         0.37902
C         46.49820        33.77830         0.21662
C         47.72168        35.93863         0.14624
C         46.49691        35.22451         0.12413
C         47.72155        37.36230         0.05819
C         46.49733        38.07800        -0.11724
C         47.72084        40.21812         0.01702
C         46.49138        39.51711        -0.16249
C         47.72533        41.64822         0.07771
C         46.48990        42.35453         0.07612
C         47.69952        44.49839         0.27050
C         46.49301        43.76063         0.25057
C         47.68927        45.94112         0.28649
C         46.47365        46.65746         0.33005
C         47.67787        48.78389         0.09612
C         46.44512        48.06907         0.21046
C         47.65507        50.19595         0.00190
C         46.44201        50.91271         0.06963
C         47.69783        53.06666         0.01766
C         46.44750        52.35154         0.05981
C         47.66276        54.49491         0.12814
C         46.47728        55.17536         0.19726
C         50.24532        20.31660        -0.22349
C         48.94806        20.90533        -0.43254
C         50.17468        23.09930        -1.06484
C         48.89058        22.33649        -0.78252
C         50.19507        24.53325        -0.71375
C         48.96604        25.21738        -0.51509
C         50.20720        27.33234        -0.23630
C         48.96489        26.62772        -0.30196
C         50.23322        28.74814         0.02992
C         48.96065        29.39190         0.39408
C         50.27557        31.60013         0.68210
C         48.95873        30.88067         0.65932
C         50.24421        33.10787         0.71485
C         48.96185        33.79983         0.43156
C         50.18288        35.93216         0.10374
C         48.96907        35.21776         0.23303
C         50.20871        37.34849         0.14743
C         48.95777        38.08151         0.16677
C         50.16219        40.23553         0.47564
C         48.93289        39.48966         0.18649
C         50.19856        41.68728         0.26772
C         48.95651        42.38040         0.16899
C         50.18642        44.52232         0.22085
C         48.94720        43.80166         0.20003
C         50.17801        45.94281         0.22345
C         48.93019        46.65905         0.20148
C         50.16682        48.80820         0.18334
C         48.91985        48.06798         0.11413
C         50.16023        50.18945         0.13206
C         48.93065        50.90226        -0.35823
C         50.19426        53.03953        -0.20724
C         48.92256        52.38051        -0.09122
C         51.40602        20.98662        -0.43405
C         52.71988        23.10184        -0.83230
C         51.47979        22.30436        -1.17893
C         52.70164        24.48640        -0.61722
C         51.43261        25.22008        -0.55038
C         52.69978        27.38042        -0.07152
C         51.42557        26.60555        -0.32128
C         52.57609        28.77404        -0.72998
C         51.41472        29.50997        -0.08382
C         52.70591        31.64403         0.03128
C         51.48923        30.88836         0.21854
C         52.73909        33.05916         0.14592
C         51.55123        33.88795         0.61600
C         52.71608        35.93520        -0.13162
C         51.42918        35.14934        -0.23336
C         52.69594        37.35080        -0.05985
C         51.45327        38.03684         0.11741
C         52.71805        40.23375         0.19268
C         51.49223        39.46572         0.43101
C         52.68674        41.65051         0.21518
C         51.42853        42.37419         0.25692
C         52.65984        44.52160         0.17512
C         51.42983        43.80732         0.21057
C         52.65876        45.94902         0.21083
C         51.41467        46.66604         0.24810
C         52.65200        48.80410         0.32421
C         51.41641        48.08105         0.29397
C         52.66013        50.22585         0.41181
C         51.36008        50.98538         0.57330
C         51.36176        52.37244        -0.01289
C         55.15383        23.08273        -0.76465
C         53.95281        22.41897        -0.91546
C         55.18278        24.48451        -0.56994
C         53.94514        25.19308        -0.50423
C         55.16916        27.30907        -0.48932
C         53.96237        26.62338        -0.42596
C         55.19317        28.78363        -0.63186
C         53.89408        29.54739        -0.70330
C         55.15645        31.64528        -0.29931
C         53.92007        30.96930        -0.31830
C         55.17310        33.07365        -0.20359
C         53.93302        33.77271        -0.08101
C         55.16959        35.93655        -0.16935
C         53.93110        35.22623        -0.11704
C         55.16672        37.37246        -0.17230
C         53.92954        38.08019        -0.06923
C         55.15874        40.23099        -0.05220
C         53.93099        39.51533         0.00267
C         55.15159        41.65751         0.04058
C         53.91031        42.37410         0.11806
C         55.12692        44.52262         0.04433
C         53.90756        43.80759         0.11238
C         55.13130        45.95573         0.09305
C         53.88653        46.66694         0.19979
C         55.12936        48.81144         0.29627
C         53.89231        48.09163         0.26859
C         55.09399        50.20586         0.42724
C         53.87918        50.89588         0.49553
C         57.68381        24.51883        -0.35756
C         56.43238        25.19805        -0.44984
C         57.64686        27.34903        -0.30565
C         56.42054        26.61514        -0.43309
C         57.65574        28.78550        -0.23825
C         56.43391        29.51551        -0.33332
C         57.65021        31.63971        -0.21848
C         56.41271        30.91954        -0.31104
C         57.64740        33.07103        -0.23580
C         56.40189        33.78996        -0.23181
C         57.63884        35.93808        -0.27927
C         56.40160        35.22032        -0.21256
C         57.63780        37.36847        -0.33015
C         56.39483        38.08601        -0.25590
C         57.60869        40.24325        -0.24958
C         56.39754        39.52485        -0.20703
C         57.62318        41.65285        -0.03606
C         56.37949        42.36247         0.06790
C         57.59214        44.49150         0.07610
C         56.38616        43.80493         0.07268
C         57.60572        45.93382        -0.33025
C         56.34755        46.67021         0.04422
C         57.63578        48.74017         0.21221
C         56.38677        48.08378         0.17706
C         58.86296        25.21554        -0.24747
C         60.09132        27.36250        -0.07397
C         58.87090        26.64025        -0.21373
C         60.09779        28.73621        -0.03797
C         58.88665        29.48516        -0.12435
C         60.09006        31.67147        -0.08815
C         58.88131        30.92823        -0.13791
C         60.08703        33.04824        -0.15197
C         58.87559        33.77983        -0.23730
C         60.07065        35.95219        -0.47742
C         58.87483        35.22744        -0.32190
C         60.05942        37.34190        -0.56785
C         58.86727        38.06380        -0.46666
C         60.07920        40.22497         0.03182
C         58.89909        39.56396        -0.63043
C         60.04805        41.56037         0.31251
C         58.85806        42.33236         0.15025
C         60.10229        44.54448         0.06207
C         58.86345        43.80238         0.49504
C         60.10141        45.89456        -0.05960
C         58.88058        46.65635         0.00393
C         58.85379        48.03121         0.16398
O         50.31540        32.33522         1.96736
O         36.56480        47.53595        -1.91365
O         30.43870        32.35724        -2.07263
O         37.10894        27.05587         1.92671
O         33.31835        37.76796         1.59494
O         37.79280        36.83132         1.76145
O         42.75011        19.35600        -1.32944
O         28.49644        44.18492        -1.86248
O         49.28218        22.73241        -2.16996
O         50.83344        39.80445         1.70542
O         34.92522        31.24747        -1.69304
O         41.67740        34.61862         1.80878
O         48.89581        29.92791         1.77627
O         44.09060        38.70888        -1.83671
O         45.16856        45.14055         1.77795
O         43.91002        34.40036        -1.34581
O         54.64534        29.26538        -1.93687
O         32.83931        23.88063         1.80918
O         29.69980        26.78999        -1.59702
O         43.56799        24.86062         1.74458
O         51.27998        34.70723        -1.61734
H         51.22661        35.50220        -2.18788
O         30.20123        41.82199         1.72862
H         30.94923        41.31129         2.10710
O         40.01256        48.64579         1.94548
H         40.80332        49.03853         2.37325
O         44.97195        27.41743        -1.89996
H         45.74126        27.88072        -2.29537
O         59.06438        39.79276        -2.08582
H         59.07099        40.76462        -2.22155
O         25.27331        31.51480        -2.37475
H         24.44763        31.97756        -2.63432
O         34.37100        34.03560        -2.07434
H         34.48709        33.12178        -2.43103
O         37.87924        41.49663        -2.20803
H         38.31069        42.30950        -2.56889
O         49.00582        50.80262        -1.84831
H         48.18988        51.21684        -2.20337
O         41.45721        39.29707        -2.24695
H         42.35776        38.96934        -2.49746
O         58.87499        43.87201         1.97865
H         58.13664        43.31186         2.30123
O         38.74317        42.55229         1.24745
H         38.72655        41.66151         1.65628
O         51.66197        21.93247        -2.57568
H         50.75535        21.89557        -2.96642
O         35.22155        23.07299        -1.58958
H         35.37590        22.15269        -1.89470
O         51.18676        51.17838         2.03063
H         51.23209        50.29225         2.44923
O         52.19724        28.58689        -2.10938
H         53.02848        28.63005        -2.64004
O         39.28140        43.72270        -2.18797
H         39.22456        44.63004        -2.55648
O         57.58588        45.90118        -1.82708
H         57.53432        46.83481        -2.12624
O         51.87788        34.34541         1.94897
H         51.62267        33.61986         2.56537
O         52.79402        27.63251         1.36344
H         52.75815        26.77093         1.82897
H         22.04836        26.98162         0.77129
H         22.01344        29.38282         0.27243
H         21.98922        31.20839        -0.16865
H         22.00300        33.60215        -0.48175
H         22.00324        35.46179        -0.51318
H         21.99623        37.87950        -0.41916
H         21.98241        39.74127        -0.28967
H         21.96069        42.16062        -0.17087
H         21.95293        44.05089         0.07436
H         21.98819        46.49916         0.25996
H         25.37644        23.59687         0.97301
H         23.28018        24.87225         1.01972
H         25.32604        49.87858         0.31122
H         23.21835        48.62411         0.34813
H         26.98871        22.61710         0.98459
H         26.96274        50.82320         0.20757
H         29.06722        21.36585         0.89753
H         29.06294        52.02633         0.23901
H         32.78436        19.13890         0.29524
H         30.67279        20.33608         0.30494
H         32.79192        54.14860         0.47153
H         30.69283        52.94706         0.37795
H         34.45161        18.21399         0.11086
H         34.42359        55.08718         0.40440
H         36.56168        17.00155         0.23406
H         36.52196        56.29691         0.42264
H         40.32898        14.97278         1.27098
H         38.18198        16.13506         0.93240
H         40.30026        58.44433         0.36365
H         38.15814        57.24292         0.36040
H         42.81548        15.00195         1.27836
H         42.76473        58.43508         0.33069
H         44.94285        16.17026         0.97434
H         44.89047        57.21678         0.26939
H         48.65870        18.23675         0.03270
H         46.57221        17.03098         0.29973
H         48.60466        55.05870         0.14615
H         46.50651        56.27034         0.26529
H         50.29602        19.30478         0.20483
H         50.22886        54.10558        -0.48056
H         52.35344        20.47415        -0.21211
H         52.31535        52.90112        -0.15092
H         56.08914        22.51451        -0.84934
H         53.95900        21.34366        -1.13732
H         56.02512        50.78536         0.47686
H         53.90261        51.98745         0.61587
H         57.71425        23.42127        -0.36242
H         57.68036        49.82984         0.33715
H         59.81855        24.67675        -0.17270
H         61.03504        26.80321         0.00088
H         61.05929        29.25654         0.06238
H         61.05449        31.15292        -0.01209
H         61.04909        33.57595        -0.12026
H         61.03301        35.43037        -0.55708
H         61.00920        37.86834        -0.73194
H         61.00981        39.66049         0.18174
H         60.94938        42.05147         0.70755
H         61.04941        43.99089        -0.01168
H         61.04806        46.43579        -0.21753
H         59.79652        48.58153         0.30122
