         268
 CSIRO Nanostructure Databank - Neutral Graphene Oxide Data Set
C        -11.20906         0.56306         0.53593
C         -9.84054         1.20418         0.74084
C         -8.99023         0.76029        -0.46563
C         -7.66320         1.53531        -0.45628
C         -6.34830         0.84019        -0.40259
C         -5.16400         1.53439        -1.01770
C         -3.82754         0.83800        -0.90456
C         -2.59361         1.46071        -1.62856
C         -1.31752         0.86781        -0.92601
C          0.00804         1.46483        -1.41983
C          1.26236         0.80916        -0.88402
C          2.59004         1.38717        -1.29959
C          3.85983         0.59840        -1.10614
C          5.20628         1.30619        -1.16675
C          6.43810         0.59258        -0.68315
C          7.66175         1.40290        -0.34995
C          8.98258         0.76792        -0.66884
C         10.18699         1.42911        -0.09474
C         11.31820         0.54715         0.20561
C         -9.75350         2.71050         0.90880
C         -8.79538         3.50259         0.34662
C         -7.95594         3.00762        -0.86404
C         -6.55316         3.89815        -1.28439
C         -5.23987         3.01509        -1.30676
C         -3.89563         3.73959        -1.35750
C         -2.59119         2.99373        -1.50720
C         -1.27581         3.62179        -1.07900
C          0.01812         2.95589        -1.51652
C          1.33300         3.69793        -1.39663
C          2.66554         2.90084        -1.61868
C          3.86563         3.53943        -0.91814
C          5.17283         2.80775        -0.89563
C          6.49236         3.59743        -1.04321
C          7.66141         2.90032        -0.36869
C          9.04354         3.66364        -0.44751
C         10.17559         2.78028         0.06117
C         -8.68516         4.90321         0.73178
C         -7.55861         5.61324         0.48797
C         -6.47089         5.23802        -0.49356
C         -5.06537         5.70215        -0.08640
C         -3.83830         5.05145        -0.63062
C         -2.55519         5.82968        -0.73172
C         -1.27306         5.03991        -0.61573
C          0.01397         5.82357        -0.58644
C          1.30854         5.08681        -0.81908
C          2.54836         5.71053        -0.24817
C          3.84338         5.02920        -0.58593
C          5.08399         5.85909        -0.75849
C          6.41572         5.14207        -0.74789
C          7.75582         5.87705        -0.11851
C          8.69592         4.83963         0.40908
C         -7.44787         7.05121         0.03364
C         -6.26689         7.78677         0.74521
C         -5.03402         7.21037         0.09236
C         -3.79645         8.02528        -0.09313
C         -2.51975         7.26712        -0.28737
C         -1.37441         7.49635         0.66032
C         -0.02047         7.15484         0.11136
C          1.21366         7.80376         0.64716
C          2.49302         7.13349         0.28444
C          3.70625         7.97696         0.07988
C          4.89719         7.35447        -0.56037
C          6.62085         7.95629         0.75700
C          7.39253         6.86804         0.99259
C         -6.21088         9.29970         0.76058
C         -5.08509        10.03076         0.65313
C         -3.73960         9.55454         0.11633
C         -2.52289        10.14248         0.84969
C         -1.24090        10.01246         0.52517
C          0.06883        10.08536         0.29427
C          1.13567         9.28899         1.05989
C          2.54397         9.88909         1.13207
C          3.72698         9.25241         0.85971
C          4.95349         9.67045         1.54714
C          6.15510         9.02765         1.63872
C        -11.32503        -0.69555         0.06811
C        -10.12517        -1.53533        -0.24174
C         -8.86051        -0.76768        -0.42742
C         -7.59628        -1.39448         0.05137
C         -6.30728        -0.64365        -0.11179
C         -5.05732        -1.44181        -0.31213
C         -3.81454        -0.65469        -0.68905
C         -2.58397        -1.41079        -1.09456
C         -1.28453        -0.66750        -1.10454
C          0.03362        -1.44226        -0.91898
C          1.19805        -0.60207        -0.39692
C          2.47728        -1.32936        -0.02684
C          3.81349        -0.71584        -0.34752
C          5.07908        -1.55056        -0.24710
C          6.31386        -0.72680         0.06302
C          7.43809        -1.36809         0.85398
C          8.82718        -0.80285         1.17665
C         10.00795        -1.56282         0.64693
C         11.23460        -0.79689         0.41187
C        -10.03072        -2.95730         0.20080
C         -8.85139        -3.62364         0.28230
C         -7.55376        -2.88248         0.23751
C         -6.28528        -3.61613        -0.05344
C         -5.16158        -2.92617        -0.44598
C         -3.90894        -3.64988        -0.79722
C         -2.62564        -2.90330        -0.99217
C         -1.38607        -3.56776        -0.46716
C         -0.15147        -2.78284        -0.20452
C          1.10213        -3.57881         0.07468
C          2.37200        -2.79539         0.35337
C          3.63274        -3.55915         0.58200
C          4.97224        -2.92616         0.33002
C          6.11503        -3.58314         1.06105
C          7.42226        -2.85214         1.11484
C          8.70112        -3.65089         0.96473
C          9.91850        -2.91924         0.52083
C         -8.72182        -4.94720         0.99529
C         -7.58839        -5.88219         0.47523
C         -6.36724        -5.12421        -0.17307
C         -5.07002        -5.87660        -0.47357
C         -3.78362        -5.06944        -0.27681
C         -2.56016        -5.78211        -0.85719
C         -1.27766        -5.00491        -0.90046
C          0.03391        -5.72382        -1.02115
C          1.17824        -5.03580        -0.30661
C          2.52554        -5.68047        -0.35817
C          3.59988        -5.06741         0.50465
C          4.84421        -5.84075         0.81482
C          6.11676        -5.09277         1.16533
C          7.41508        -5.81134         1.00650
C          8.57595        -5.12825         0.82478
C         -7.09375        -6.75009         1.64243
C         -6.30665        -7.82768         1.41922
C         -4.86258        -7.32402        -0.17461
C         -3.63304        -7.89057         0.05254
C         -2.46924        -7.25171        -0.61852
C         -1.16120        -7.99530        -0.67969
C          0.03697        -7.27613        -1.36882
C          1.37610        -7.98748        -1.06430
C          2.57951        -7.12158        -0.70452
C          3.76437        -7.92376        -0.25978
C          4.93078        -7.28609         0.39609
C          6.28676        -7.92619         0.10478
C          7.37654        -7.34054         1.03526
C         -5.58573        -8.70625         2.33295
C         -4.37314        -9.27218         2.06921
C         -3.40184        -8.97862         1.00601
C         -2.13844        -9.51772         1.12966
C         -1.02433        -9.21027         0.20178
C          0.32746        -9.83984         0.33008
C          1.40286        -9.25199        -0.23724
C          2.49146        -9.78880        -1.16498
C          3.94205        -9.24587        -0.99800
C          5.01111       -10.04973        -0.28633
C          6.10750        -9.43675         0.19586
O          6.11470         8.07692        -0.55726
O         -0.51917        -4.99559        -2.15346
O         -5.45864        -0.98317         1.01997
O         -5.99398        -5.52875        -1.53254
O         -4.72615         7.80063        -1.20240
O         -1.12137        -3.01057         0.86261
O         -3.20553         3.68709        -2.63482
O         -6.96291         6.46757        -1.25147
O          5.88793         5.71492        -1.97320
O          6.39256        -0.59731         1.51348
O          1.96367         7.06918         1.65621
O         -1.57874         7.63560         1.85574
O          1.01184         0.50032         0.53202
O          3.78262        -5.67699         1.80578
O          7.50628         2.20840         0.86544
O          0.85291        -4.62921         1.05093
O         -5.37260         2.01976        -2.37073
O         -1.26002         3.95518         0.35070
O          3.16253         0.57985        -2.37953
O         -6.91811         1.51392         0.78524
O          5.85336        -4.23987         2.32211
O          0.01200         7.06487        -1.34064
O          3.97774        -8.09063         1.17068
O          2.88468        -3.02368         1.69949
O         -3.32017        -3.49898        -2.12417
O          1.90601        -8.85993        -2.18064
O          8.95068         0.15561         1.91447
O         -1.93568        -1.04503        -2.35011
O         -1.41516        -9.31926        -1.23148
O          2.93894        -6.09408        -1.69304
O          5.23393        -2.70600        -1.10952
O          4.36519         2.90374         0.30548
O         -3.54493         0.29428         0.39090
O         -7.61740        -1.96620         1.40564
O         -2.36722         6.89488        -1.68976
O          6.11185         0.66982        -2.09934
O          1.40139         4.86567        -2.26581
O         -2.81951        -6.68334        -1.95033
O          8.21794        -3.18129         2.27893
O         -5.99923        -8.10378         0.05742
O          3.94325         8.01515        -1.39714
O         -8.73209         3.03991        -1.99009
O         -9.49356        -1.37772        -1.58984
O         -0.00842         2.10844        -2.71037
O         -4.26202         4.88140         0.78177
O          9.02973        -0.20650        -1.41087
O          3.21817        -0.56889         0.96842
O          3.30274         5.02032         0.78535
O         -6.26057         7.36188         2.12951
H         -6.91153         7.89571         2.62951
O          6.81271         3.46359        -2.43855
H          6.28303         4.11852        -2.94827
O          9.33691         4.01037        -1.78948
H          9.01779         4.92867        -1.96240
O          0.50891        -1.82799        -2.23146
H         -0.27190        -1.86177        -2.83805
O         -8.48761        -4.61048         2.37542
H         -8.30329        -3.64895         2.45374
O         -8.19724        -6.68321        -0.53493
H         -7.51904        -7.31317        -0.87202
O          2.97074         3.03152        -3.01154
H          2.22373         2.66866        -3.53518
O         -1.43132         1.27751         0.43590
H         -0.63720         0.99197         0.94667
O         -9.72862         1.12078        -1.62520
H         -9.41132         0.60498        -2.39750
O          4.44946        -8.98065        -2.32634
H          3.68889        -8.62574        -2.85009
O         -9.29320         0.61915         1.94188
H         -8.36224         0.92831         2.03734
O          0.71525         9.28974         2.43755
H          1.14647         8.52893         2.88582
O         -3.54717        -5.01536         1.15260
H         -4.09958        -4.31163         1.55506
O          6.65277        -7.56311        -1.24275
H          6.03635        -8.03175        -1.86188
O         -6.70970         4.25908        -2.64142
H         -7.61341         3.95383        -2.92161
O         -0.16257        -7.39097        -2.76681
H         -1.06215        -7.04937        -2.97712
O         -3.64608        10.12881        -1.20828
H         -4.22471         9.59280        -1.79812
O          7.13191        -7.76646         2.37725
H          6.30667        -7.34895         2.70288
O          8.34532         6.55200        -1.23492
H          7.67527         7.18889        -1.57791
O         -2.63920         1.15240        -3.01134
H         -3.11393         1.88767        -3.46529
H         12.17741        -1.36176         0.49136
H         12.31929         1.00614         0.18322
H         11.06282         3.29343         0.46457
H          8.64552         4.64094         1.49271
H          7.81234         6.69687         1.99396
H          6.86563         9.38943         2.39861
H          4.80964        10.52592         2.22782
H          2.59860        10.80773         1.74058
H          0.42288        10.78514        -0.48422
H         -2.75752        10.88813         1.63327
H         -5.16990        11.12274         0.77925
H         -7.14416         9.81470         1.04731
H         -8.38291         7.64586        -0.08668
H         -9.54480         5.38497         1.22528
H        -10.37503         3.14099         1.71236
H        -12.11298         1.13992         0.78426
H        -12.32084        -1.15013        -0.05446
H        -10.96912        -3.48422         0.43370
H         -9.67862        -5.52635         0.93150
H         -7.36379        -6.44968         2.66510
H         -6.06573        -8.94358         3.29516
H         -3.98610        -9.96337         2.83656
H         -1.93457       -10.22376         1.94900
H          0.37274       -10.88692         0.66870
H          2.42083       -10.85709        -1.47467
H          4.90764       -11.14392        -0.22253
H          6.90010       -10.02615         0.68130
H          8.37484        -7.74077         0.73323
H          9.50375        -5.69225         0.63748
H         10.77052        -3.50395         0.14000
