         349
 CSIRO Nanostructure Databank - Neutral Graphene Oxide Data Set
C          1.22117         3.49392         0.96447
C          0.05472         4.20357         1.23655
C          1.19577         6.33679         0.88989
C          0.03769         5.60193         1.21019
C          1.18837         7.81557         0.89576
C         -0.03161         8.52754         0.85634
C          1.12959        10.67209         0.66984
C         -0.05868         9.90783         0.72392
C          1.09176        12.10250         0.37654
C         -0.06901        12.82120         0.17114
C          1.10960        14.95222        -0.28365
C         -0.06287        14.21520        -0.10784
C          1.11001        16.37464        -0.58267
C         -0.10617        17.12879        -0.58981
C          1.09120        19.22908        -0.97498
C         -0.11742        18.48789        -0.76839
C          1.08505        20.62389        -1.21501
C         -0.11190        21.41624        -1.17908
C          1.09609        23.58896        -1.43388
C         -0.11901        22.77805        -1.25674
C          1.13384        25.04643        -1.04159
C         -0.01051        25.71179        -0.36001
C          1.17623        27.85537        -0.69717
C          0.02861        27.03342        -0.14123
C          1.23547        29.23501        -0.10023
C          3.64407         3.47785         0.37819
C          2.40925         4.18655         0.64993
C          3.62883         6.29806         0.29815
C          2.37287         5.60283         0.58693
C          3.65263         7.79832         0.67107
C          2.39389         8.56368         0.91591
C          3.60457        10.77326         0.63390
C          2.37586         9.99065         0.83771
C          3.57828        12.03549         0.08346
C          2.38173        12.88122         0.41634
C          3.56545        14.89749        -0.46078
C          2.37298        14.25498        -0.20443
C          3.58165        16.32168        -0.73005
C          2.32646        17.05817        -0.79329
C          3.56193        19.18189        -1.07442
C          2.33253        18.48691        -0.97464
C          3.61103        20.59673        -1.19259
C          2.35891        21.31337        -1.49180
C          3.65676        23.53342        -1.16294
C          2.40292        22.84977        -1.54648
C          3.64516        24.94113        -0.92629
C          2.46078        25.69606        -0.85180
C          3.68109        27.76670        -0.27291
C          2.48113        27.09257        -0.58203
C          3.67471        29.15254         0.13001
C          2.39208        29.83282         0.24218
C          6.10950         3.34778        -0.11822
C          4.84606         4.12111         0.20907
C          6.11048         6.25786         0.32646
C          4.90656         5.55860         0.29795
C          6.13973         7.61274         0.79367
C          4.94291         8.19381         1.17833
C          6.09954        10.66659         0.44826
C          4.91997        10.28431         0.99374
C          6.09865        11.77959        -0.58132
C          4.80442        12.62357        -0.50605
C          6.13026        14.82119        -0.66281
C          4.83314        14.12778        -0.68880
C          6.05954        16.28657        -0.32918
C          4.80068        16.96542        -0.84238
C          6.11002        19.14394        -0.92510
C          4.81750        18.40543        -1.12092
C          5.99661        20.58379        -0.57544
C          4.80423        21.33863        -1.01880
C          6.11260        23.45550        -0.71437
C          4.84432        22.76207        -0.99064
C          6.13103        24.85424        -0.63397
C          4.94936        25.70364        -0.97104
C          6.09199        27.71031         0.09453
C          4.92627        27.06075        -0.28963
C          6.12038        29.12915         0.35276
C          4.86389        29.81347         0.39209
C          8.57140         3.44663         0.33353
C          7.39340         4.10138         0.14110
C          8.55838         6.20721         0.84898
C          7.43079         5.60702        -0.01929
C          8.57803         7.71866         0.73408
C          7.38871         8.38570         0.82335
C          8.61676        10.59491         0.51374
C          7.33932         9.89451         0.78299
C          8.64191        11.97979        -0.02382
C          7.39284        12.64377        -0.50522
C          8.57027        14.83623        -0.29887
C          7.35812        14.14312        -0.48642
C          8.65679        16.27976        -0.72609
C          7.34944        17.03239        -0.57373
C          8.57691        19.15368        -0.34757
C          7.35062        18.39644        -0.57820
C          8.54964        20.52805        -0.31418
C          7.29348        21.29913        -0.31677
C          8.62932        23.40247        -0.75471
C          7.32910        22.73324        -0.52651
C          8.64061        24.89962        -0.60974
C          7.36324        25.52186        -0.17047
C          8.64779        27.69716         0.41765
C          7.34895        26.94939         0.26268
C          8.61568        29.17227         0.40059
C          7.34457        29.81587         0.46893
C         11.07774         3.34560         0.10749
C          9.83541         4.15343         0.36145
C         11.12030         6.24975         0.50506
C          9.87832         5.52970         0.51303
C         11.14335         7.66966         0.58979
C          9.85209         8.38172         0.25507
C         11.05753        10.57352         0.58627
C          9.90023         9.86363         0.46808
C         11.04217        12.04180         0.52258
C          9.87752        12.73108         0.30711
C         11.08854        14.92567         0.19743
C          9.76213        14.22739         0.41705
C         11.08568        16.33600         0.09969
C          9.83432        17.04545        -0.15235
C         10.96347        19.09613         0.64648
C          9.78550        18.41108        -0.03063
C         10.92754        20.61881         0.60009
C          9.73836        21.31269         0.08602
C         11.26405        23.37083        -0.31725
C          9.92856        22.67046        -0.50822
C         11.24830        24.87733        -0.47586
C          9.95082        25.62964        -0.47468
C         11.16198        27.83101        -0.12523
C          9.95859        27.01444         0.09489
C         11.08604        29.19536         0.08169
C          9.83095        29.85361         0.31761
C         13.56775         3.42927         0.13508
C         12.36265         4.12296         0.24694
C         13.59766         6.24680         0.46731
C         12.36362         5.53284         0.41944
C         13.60710         7.69272         0.67202
C         12.34232         8.38467         0.72365
C         13.56302        10.63949         1.12286
C         12.25602         9.84650         1.16618
C         13.59533        12.07591         0.83731
C         12.36414        12.72411         0.23426
C         13.52271        14.94048         0.43668
C         12.30302        14.22993         0.34551
C         13.51464        16.36218         0.36850
C         12.30743        17.04855         0.18258
C         13.40376        19.20656         0.86628
C         12.28557        18.56465         0.07084
C         13.17702        20.45847         1.38810
C         12.20211        21.35323         0.80800
C         13.56233        23.49575         0.80172
C         12.38898        22.72536         0.49356
C         13.68473        24.91675         0.35048
C         12.52866        25.63414        -0.25887
C         13.55359        27.84363         0.52025
C         12.50267        27.17564        -0.42906
C         13.62308        29.31745         0.18657
C         12.32749        30.03861        -0.14582
C         16.11138         3.39774         0.00897
C         14.78837         4.11794         0.14754
C         16.10782         6.20504         0.30179
C         14.79762         5.51490         0.29833
C         16.11276         7.69442         0.55456
C         14.82107         8.39849         0.70495
C         16.03424        10.64419         0.49973
C         14.88263         9.86121         0.95106
C         16.06873        12.03212         0.64822
C         14.80906        12.76735         0.85432
C         15.82919        15.02051         1.15120
C         14.75409        14.23541         0.76685
C         16.02090        16.40126         0.81709
C         14.78646        17.12871         0.46340
C         16.02579        19.21811         1.40152
C         14.75089        18.60223         0.78902
C         16.06701        20.73733         1.13852
C         15.05236        21.50873         1.57904
C         16.15971        23.66993         1.06012
C         14.82834        22.95374         1.33890
C         16.14759        25.07012         0.64346
C         14.90861        25.73999         0.60146
C         16.10343        27.84606         0.30993
C         14.88526        27.13352         0.44816
C         16.09207        29.27848         0.13867
C         14.80885        29.96004         0.05198
C         18.28719         3.49709        -1.32405
C         16.99544         4.18498        -0.97443
C         18.33065         6.31029        -0.84188
C         17.21686         5.59809        -0.46713
C         18.46758         7.76515        -0.56968
C         17.30597         8.47493         0.08620
C         18.24653        10.67829        -0.84159
C         17.09134         9.92117        -0.23448
C         18.33141        12.10458        -0.48450
C         17.33489        12.69784         0.29776
C         18.58640        14.86244         0.28214
C         17.66162        13.99339         0.81611
C         18.63432        16.32467         0.74769
C         17.25599        17.04514         0.76843
C         18.43859        19.20059         0.67861
C         17.27149        18.50092         0.84800
C         18.51075        20.66590         0.92225
C         17.26173        21.40592         0.50304
C         18.57889        23.56389         0.55476
C         17.35685        22.88607         0.80064
C         18.60366        25.00019         0.42704
C         17.36922        25.73873         0.44877
C         18.57752        27.85363         0.09386
C         17.34598        27.15098         0.27017
C         18.54512        29.27421        -0.04404
C         17.28650        29.95725        -0.02651
C         19.37912         4.20912        -1.67455
C         20.39984         6.41293        -2.16864
C         19.39509         5.65914        -1.58646
C         20.40195         7.83129        -2.10735
C         19.46164         8.53388        -1.37125
C         20.59119        10.75186        -1.56517
C         19.48342         9.97328        -1.24853
C         20.58492        12.15444        -1.42350
C         19.50640        12.84624        -0.85572
C         20.49325        15.11451        -1.22430
C         19.54787        14.28971        -0.63209
C         20.46515        16.52013        -0.98724
C         19.60979        17.11748        -0.10638
C         20.92477        19.23947         0.38223
C         19.60614        18.62897        -0.07317
C         21.02604        20.52815         0.74245
C         19.81616        21.38577         0.87881
C         21.00120        23.53636         0.28942
C         19.81548        22.83524         0.52524
C         21.01025        24.92481         0.11508
C         19.82652        25.68762         0.20433
C         20.99973        27.88701        -0.10634
C         19.81850        27.14502         0.06153
C         20.96573        29.28124        -0.24035
C         19.76122        29.97420        -0.21180
O          0.90672        24.65911        -2.44329
O          6.37937        20.86397         0.80488
O         14.97411        18.14123        -0.59524
O         10.69870        25.44308        -1.70809
O          9.47707        27.11054         1.47974
O          8.37454        12.12007        -1.46623
O          2.44968        22.05222        -2.76529
O         13.51039        25.02104        -1.16550
O         15.50923        23.64821         2.43183
O         19.10121        21.11526         2.17122
O          8.54397        24.28281        -1.92288
O          8.07790        10.52484         1.89809
O          4.58335        13.21192        -1.84103
O         17.08620        10.25119        -1.66907
O          5.67391        18.82504        -2.27903
O         16.86686        14.43330         1.88985
O         16.45049         6.74854         1.62844
O         10.93163        22.67289        -1.56152
O          9.92569        21.20568         1.55138
O          3.64063         7.33888        -0.72582
O          4.96049         9.31291         2.01818
O         14.05351        20.93051         2.36319
O          7.26127        25.86522         1.26546
O         18.50811         8.18902         0.85121
O         14.39500        10.27592         2.27733
O         17.22477        21.24641        -0.95487
H         16.38776        21.62609        -1.29692
O         11.90813         9.75037         2.58489
H         12.76011         9.66913         3.07584
O          9.45215        14.46327         1.84541
H         10.13912        14.01438         2.38342
O          6.08406        11.12301        -1.86182
H          5.82471        11.79771        -2.52946
O         12.37311        18.94059        -1.31929
H         13.27278        18.67454        -1.62336
O          5.12492        26.06132        -2.40358
H          5.06605        25.23200        -2.92595
O         19.12396        16.34770         2.11746
H         18.50912        15.79564         2.64941
O          8.88570        16.22967        -2.18355
H          8.86825        17.15001        -2.52368
O         16.21345         4.27536        -2.20802
H         16.78210         4.68548        -2.89329
O         15.95927        18.97285         2.81631
H         16.69726        19.44928         3.25090
O          2.59271        13.19350         1.85727
H          2.45544        12.36386         2.36421
O         16.75627         3.29412         1.28265
H         16.85389         4.19478         1.65879
O         13.08191        27.66731         1.88034
H         12.21509        28.11929         1.97349
O          9.72937         8.22696        -1.21981
H         10.47878         8.70115        -1.64088
O         10.93995        18.71299         2.03939
H         10.28727        19.29639         2.48736
O         12.54566        12.45583        -1.21202
H         11.80220        12.88225        -1.69145
O          5.91584        16.32800         1.14646
H          6.02894        17.25669         1.44271
O          6.12036         2.07643         0.53452
H          6.17875         2.22688         1.50001
O         19.41401        19.07391        -1.46166
H         18.74834        19.80013        -1.47130
O         11.09949         2.17652         0.94394
H         11.16180         2.46893         1.87624
O          7.72028         5.88159        -1.41186
H          8.08785         6.79293        -1.47887
O          0.90685        28.03088        -2.12244
H          0.90377        27.14006        -2.53628
O          8.23302         5.86738         2.22467
H          8.83485         6.36948         2.81287
O         12.36688        30.38782        -1.54294
H         12.49656        29.54702        -2.03978
O         12.86684        27.48770        -1.78782
H         13.24677        26.66823        -2.18279
H          1.22545         2.39564         1.00662
H         -0.86635         3.66046         1.49045
H         -0.89581         6.12069         1.46652
H         -0.98582         7.98407         0.85214
H         -1.03281        10.40560         0.62581
H         -1.04818        12.32363         0.22063
H         -1.04006        14.70351        -0.22119
H         -1.06350        16.61419        -0.43285
H         -1.08257        19.01116        -0.76036
H         -1.07816        20.90644        -1.06207
H         -1.08165        23.30853        -1.26231
H         -0.87013        25.10641        -0.03565
H         -0.80706        27.54609         0.35911
H          0.28429        29.78129        -0.01035
H          3.61470         2.37882         0.34155
H          2.39091        30.86254         0.63103
H          6.07753         3.13377        -1.22513
H          4.84825        30.88497         0.64157
H          8.59230         2.34683         0.37299
H          7.32215        30.91252         0.56002
H         11.02277         2.96009        -0.95079
H          9.82761        30.95347         0.35374
H         13.55316         2.33625         0.01696
H         12.25055        30.99660         0.43014
H         15.94916         2.35984        -0.37082
H         14.81783        31.03183        -0.20167
H         18.28596         2.39954        -1.39802
H         17.27782        31.04896        -0.16465
H         20.29060         3.70281        -2.02686
H         21.19602         5.90591        -2.73226
H         21.17422         8.37546        -2.66875
H         21.51529        10.26948        -1.91357
H         21.49357        12.70420        -1.70407
H         21.23526        14.71127        -1.92591
H         21.14617        17.15608        -1.57161
H         21.82861        18.61392         0.32242
H         22.00553        20.95212         1.01399
H         21.95613        22.99285         0.25895
H         21.97293        25.41917        -0.07202
H         21.97437        27.38097        -0.13035
H         21.90852        29.83122        -0.36896
H         19.74731        31.06825        -0.31827
