         661
 CSIRO Nanostructure Databank - Neutral Graphene Oxide Data Set
C          5.98278        31.54571         0.82389
C          5.98741        32.90997         0.83528
C          8.43903        27.25173         0.43460
C          8.43536        28.65332         0.60463
C          7.21706        29.39390         0.72087
C          8.45562        31.51105         0.79073
C          7.21050        30.78507         0.78189
C          8.46120        32.92913         0.80834
C          7.22073        33.66275         0.81170
C          8.46690        35.78676         0.73524
C          7.23910        35.05414         0.79021
C          8.48921        37.19089         0.68132
C         10.88763        23.04983        -0.44227
C         10.85103        24.47124        -0.38244
C          9.66731        25.14241        -0.03904
C         10.87356        27.27433         0.09384
C          9.63452        26.54637         0.17155
C         10.89554        28.65884         0.40325
C          9.68275        29.36102         0.63261
C         10.90886        31.50577         0.84731
C          9.68631        30.79315         0.77017
C         10.92423        32.90750         0.87634
C          9.69586        33.64052         0.80551
C         10.95065        35.76465         0.63930
C          9.70928        35.06244         0.74251
C         10.95135        37.19538         0.51051
C          9.70806        37.91637         0.57893
C         10.90964        40.07169         0.43489
C          9.71161        39.33302         0.54615
C         10.92285        41.50222         0.37716
C         13.33119        18.83297        -0.97717
C         13.28688        20.22933        -1.04294
C         12.09990        20.95109        -0.73377
C         13.19729        23.11321        -1.41704
C         12.04254        22.34819        -0.80730
C         13.28900        24.54997        -0.95675
C         12.07364        25.22570        -0.60364
C         13.24890        27.41841        -0.60890
C         12.05499        26.61097        -0.35037
C         13.29196        28.78697        -0.07554
C         12.15729        29.36951         0.41213
C         13.43393        31.52520         0.76987
C         12.18493        30.73075         1.05432
C         13.40845        32.92218         1.00408
C         12.17760        33.63092         0.93512
C         13.44819        35.69774         0.44140
C         12.16711        35.03134         0.72613
C         13.45069        37.20793         0.19854
C         12.16164        37.93304         0.35609
C         13.38315        40.08682         0.11632
C         12.13848        39.33170         0.32211
C         13.34367        41.53557         0.28038
C         12.13111        42.23784         0.30608
C         13.32017        44.38007        -0.13394
C         12.17476        43.70127         0.16394
C         13.35326        45.81605        -0.61994
C         15.75592        14.55003        -1.09358
C         15.75546        15.93853        -1.22146
C         14.54924        16.68575        -1.06187
C         15.76248        18.77798        -1.45459
C         14.53601        18.08076        -1.16266
C         15.69213        20.21611        -1.72435
C         14.48922        20.97932        -1.37126
C         15.75565        23.09871        -1.41736
C         14.51006        22.36512        -1.36905
C         15.77233        24.51816        -1.18188
C         14.52349        25.20949        -0.98922
C         15.84308        27.32904        -0.56702
C         14.57186        26.67560        -0.88062
C         15.81554        28.71570         0.05062
C         14.56993        29.55263        -0.31147
C         15.87062        31.58227         0.43633
C         14.61814        30.87543         0.41257
C         15.89886        32.92314         0.75713
C         14.69987        33.64258         1.28408
C         15.91571        35.79398         0.82319
C         14.70834        35.06910         0.80922
C         15.90270        37.24550         0.76262
C         14.72194        37.90767         0.46697
C         15.93964        40.08158         0.61412
C         14.72467        39.35293         0.24549
C         15.90437        41.56452         0.52247
C         14.61371        42.27076         0.32007
C         15.91484        44.40064        -0.29043
C         14.60745        43.65302        -0.23811
C         15.88595        45.87349        -0.22314
C         14.65340        46.55805        -0.33913
C         15.83813        48.70950        -0.22706
C         14.64290        47.95710        -0.31356
C         15.81143        50.12780        -0.20150
C         18.26050        10.34380        -0.13780
C         18.22640        11.69686        -0.62927
C         17.04205        12.37840        -0.73713
C         18.27712        14.52841        -1.39883
C         16.96876        13.75839        -1.25394
C         18.22256        15.99373        -1.38524
C         17.00273        16.66918        -1.40296
C         18.25192        18.82233        -1.59720
C         16.98912        18.10357        -1.51524
C         18.27028        20.24666        -1.67886
C         17.01326        20.98506        -1.84675
C         18.22080        23.12199        -1.54202
C         16.98212        22.42350        -1.56184
C         18.24393        24.54614        -1.35087
C         17.01034        25.22321        -1.12419
C         18.31994        27.26971        -0.56100
C         17.04537        26.62521        -0.73374
C         18.33737        28.63652         0.09092
C         17.11295        29.46238        -0.34337
C         18.31957        31.49998         0.49439
C         17.14179        30.88300         0.19501
C         18.34956        32.92120         1.04019
C         17.16527        33.68729         0.46683
C         18.39635        35.81149         1.12814
C         17.16190        35.12484         0.89540
C         18.32368        37.26073         1.32103
C         17.14300        37.96003         1.03978
C         18.29160        40.22169         1.31048
C         17.07886        39.41963         0.99983
C         18.27347        41.73706         1.07907
C         17.21139        42.20083         0.08326
C         18.34084        44.42554         0.23785
C         17.17167        43.71710         0.06271
C         18.35022        45.88332         0.14069
C         17.10861        46.57701        -0.04406
C         18.30741        48.73158        -0.05063
C         17.10147        48.01212        -0.10745
C         18.30606        50.19537        -0.42138
C         16.98853        50.89307        -0.17194
C         18.18059        53.04784        -0.00731
C         16.97905        52.29325        -0.10654
C         18.17510        54.44712        -0.13074
C         20.49994         6.58711         2.05673
C         20.56899         7.76028         1.27759
C         19.40964         8.39089         0.82513
C         20.70370        10.43668         0.25295
C         19.42379         9.68717         0.23771
C         20.73047        11.79543        -0.35867
C         19.52457        12.36006        -1.07916
C         20.82090        14.57627        -1.22243
C         19.51305        13.88496        -0.79934
C         20.69914        15.96757        -1.53622
C         19.46838        16.69811        -1.42743
C         20.77963        18.87091        -1.32411
C         19.47352        18.11375        -1.50705
C         20.74546        20.29361        -1.83749
C         19.47957        20.99055        -1.75624
C         20.62984        23.18438        -2.09092
C         19.42435        22.41022        -1.76227
C         20.71564        24.60509        -1.67635
C         19.49464        25.25113        -1.32841
C         20.81752        27.26123        -0.77331
C         19.52590        26.62624        -0.91116
C         20.89848        28.57803        -0.03752
C         19.62106        29.39518        -0.16677
C         20.89076        31.44596         0.71524
C         19.61283        30.84933         0.18531
C         20.88806        32.88745         1.27838
C         19.67630        33.64905         0.70426
C         20.89268        35.69758         1.70773
C         19.61887        35.10768         1.12632
C         20.90161        37.24212         1.60707
C         19.59699        37.98614         1.55401
C         20.84065        40.21214         1.12420
C         19.58950        39.48887         1.41181
C         20.83500        41.57109         0.87645
C         19.61346        42.34908         0.72748
C         20.85171        44.47709         0.39595
C         19.59631        43.69826         0.44202
C         20.81233        45.95889         0.48142
C         19.55306        46.62254         0.25885
C         20.76288        48.79269         0.25697
C         19.54247        48.05754         0.15328
C         20.74987        50.23669         0.25800
C         19.49095        50.95926         0.11035
C         20.61996        53.10976         0.63841
C         19.42907        52.32507         0.22190
C         20.58615        54.60169         0.45738
C         19.35132        55.23870        -0.06395
C         20.53748        57.38341        -0.59860
C         19.36149        56.58791        -0.41812
C         20.38027        58.70564        -1.02310
C         22.67778         4.32855         4.08341
C         21.55332         4.84978         3.44082
C         22.93538         6.68001         2.50274
C         21.64028         6.02130         2.65387
C         23.06378         7.79270         1.70912
C         21.92803         8.26079         0.83580
C         23.15024        10.46270         0.61797
C         21.96947         9.75520         0.58905
C         23.25272        11.80564        -0.02910
C         22.04411        12.44651        -0.66774
C         23.33677        14.54909        -0.91803
C         22.03892        13.89849        -1.00033
C         23.62315        15.70657        -1.61354
C         21.79793        16.75565        -2.04050
C         23.26478        18.77009        -2.27167
C         21.95689        18.09755        -1.85998
C         23.20846        20.27791        -2.07671
C         21.92792        20.95242        -2.14755
C         23.16818        23.18797        -2.43952
C         21.88453        22.41973        -2.37556
C         23.20957        24.61900        -2.00517
C         21.96531        25.25712        -1.56931
C         23.32920        27.15226        -0.50137
C         22.00660        26.59617        -1.04443
C         23.41607        28.66858        -0.41600
C         22.11727        29.43600        -0.46712
C         23.45955        31.42314         0.52116
C         22.15087        30.69953         0.39987
C         23.44252        32.88495         0.86722
C         22.18269        33.66584         1.03711
C         23.46031        35.80384         1.32453
C         22.18783        35.01211         1.25157
C         23.41474        37.29271         1.13263
C         22.05321        37.96271         0.89838
C         23.30204        40.17154         0.60660
C         22.14966        39.45764         1.33778
C         23.29115        41.63011         0.99155
C         22.10214        42.29016         0.92479
C         23.22043        44.54676         1.37528
C         22.09725        43.76502         0.78807
C         23.23901        46.01857         1.13327
C         21.99349        46.67170         0.63160
C         23.22585        48.79533         0.51000
C         22.00158        48.10726         0.50066
C         23.21884        50.23753         0.28461
C         21.93474        50.94373         0.35385
C         23.17695        53.14174         0.34269
C         21.95007        52.37883         0.83375
C         23.15574        54.63270         0.24518
C         21.86302        55.39298         0.38737
C         23.19835        57.31388        -0.61186
C         21.86063        56.77935        -0.20302
C         23.34233        58.27597        -1.56384
C         21.45620        59.42196        -1.65904
C         23.12581        61.14716        -2.23240
C         21.85570        60.73606        -1.66960
C         23.91931         4.96161         3.99185
C         25.30624         6.83114         3.19911
C         24.08261         6.13953         3.22776
C         25.46071         8.03072         2.47256
C         24.41428         8.41492         1.45221
C         25.47466        10.69983         1.41602
C         24.35741         9.90651         1.18880
C         25.48599        12.10514         1.04384
C         24.40026        12.66270         0.32610
C         25.52284        14.83533         0.25884
C         24.42094        14.00330        -0.09846
C         25.60641        16.21608        -0.19926
C         24.69105        16.65440        -1.28380
C         25.49712        19.06748        -0.94566
C         24.54448        18.14665        -1.61721
C         25.54831        20.41352        -1.29836
C         24.39513        20.99010        -1.96159
C         25.70025        23.18428        -2.15200
C         24.45670        22.41335        -2.33813
C         25.63243        24.63703        -2.62456
C         24.42876        25.26012        -1.89860
C         25.83626        27.32083        -1.26705
C         24.57357        26.52155        -1.13749
C         25.83829        28.77143        -0.90270
C         24.61008        29.39349        -0.45572
C         25.82255        31.56718        -0.27766
C         24.65527        30.80849        -0.11569
C         25.87593        32.99030         0.03238
C         24.73845        33.63320         0.75052
C         26.09120        35.84861         0.89443
C         24.77606        35.07750         1.12999
C         25.94873        37.34648         0.74595
C         24.62244        38.00624         0.50116
C         25.81248        40.20575         0.94972
C         24.63014        39.49158         0.78093
C         25.80922        41.62985         1.24574
C         24.52111        42.31622         1.43044
C         25.76443        44.60731         1.72377
C         24.49313        43.80732         1.64991
C         25.76743        46.04980         1.31230
C         24.55490        46.68268         0.99988
C         25.81981        48.86943         0.70804
C         24.52598        48.08341         0.56139
C         25.70448        50.33423         1.09197
C         24.50988        51.03455         0.47791
C         25.73132        53.16924         0.21745
C         24.45967        52.48133         0.63927
C         25.73893        54.65545         0.52733
C         24.43720        55.39463         0.48651
C         25.75871        57.46479        -0.38552
C         24.43442        56.84432         0.07586
C         25.71529        58.65751        -1.25914
C         24.51461        59.10780        -1.75242
C         24.29382        60.43197        -2.32290
C         26.58822         8.83403         2.62178
C         27.74568        10.97832         2.36294
C         26.64266        10.16291         2.10387
C         27.75779        12.36759         2.04575
C         26.58411        12.92949         1.38981
C         27.57340        15.19233         1.65453
C         26.54819        14.30499         1.07166
C         27.52426        16.65869         1.31669
C         26.51623        17.09480         0.32829
C         27.64599        19.41103         0.40783
C         26.45365        18.53648         0.02534
C         27.78204        20.71358        -0.26315
C         26.69776        21.24908        -0.97368
C         28.00764        23.37141        -1.29415
C         26.76761        22.62011        -1.48048
C         28.10617        24.70876        -1.72792
C         27.01715        25.36861        -2.56329
C         28.20981        27.55760        -1.95327
C         26.87675        26.91077        -2.30047
C         28.22717        28.85896        -1.51158
C         26.99271        29.52269        -1.08537
C         28.19706        31.68716        -0.94893
C         27.01738        30.93903        -0.79000
C         28.18794        33.12176        -0.77535
C         26.97484        33.75678        -0.31526
C         28.23196        35.97620        -0.32281
C         26.88971        35.27986        -0.29489
C         28.39840        37.36861         0.30019
C         27.11031        38.07658         0.69696
C         28.22684        40.25527         1.33799
C         27.08577        39.50753         0.97454
C         28.23773        41.68749         1.15959
C         26.99287        42.35795         1.33280
C         28.29823        44.54690         1.33001
C         27.05401        43.81129         1.63748
C         28.28287        46.01079         1.75903
C         27.01973        46.74638         1.28793
C         28.22624        48.92801         1.29200
C         27.05780        48.16837         1.14235
C         28.25083        50.43793         1.41607
C         26.98703        51.11718         0.91659
C         28.23001        53.26913         0.96220
C         26.97170        52.45345         0.71350
C         28.20114        54.62116         0.30782
C         27.01517        55.34976         0.17489
C         26.98295        56.66318        -0.32026
C         28.86592        13.16934         2.32135
C         29.91538        15.40157         2.41082
C         28.84682        14.59192         2.12751
C         29.86548        16.90775         2.34211
C         28.76095        17.46328         1.45606
C         30.03463        19.59308         1.33473
C         28.83551        18.73564         0.99025
C         30.17291        20.80747         0.44420
C         29.04742        21.39903        -0.17274
C         30.39663        23.39431        -0.69281
C         29.15008        22.71782        -0.73790
C         30.47399        24.73533        -1.13594
C         29.35018        25.38738        -1.65637
C         30.72343        27.52008        -1.74935
C         29.48667        26.79588        -2.22172
C         30.71558        28.96655        -1.70037
C         29.46985        29.61217        -1.46389
C         30.65966        31.72988        -1.26831
C         29.44440        31.00738        -1.24449
C         30.61361        33.19108        -1.28786
C         29.33827        33.89040        -1.02385
C         30.64225        36.09417        -1.11346
C         29.34252        35.32543        -0.79974
C         30.60477        37.52613        -0.63901
C         29.26617        38.18630        -0.78893
C         30.54136        40.35318        -0.06184
C         29.37322        39.71482        -0.72968
C         30.53544        41.75197         0.25082
C         29.40397        42.41928         0.75841
C         30.59506        44.62539         0.38281
C         29.39816        43.87560         0.86316
C         30.66211        46.08652         0.61667
C         29.56010        46.76240         1.37863
C         30.62176        48.85674         0.37981
C         29.53001        48.24028         1.26068
C         30.64024        50.35042         0.50048
C         29.48804        51.08894         0.79256
C         29.44994        52.47289         0.60611
C         31.19874        17.48992         1.96323
C         32.55717        19.36343         1.17464
C         31.29748        18.75859         1.45013
C         32.65496        20.67754         0.68849
C         31.45558        21.40031         0.32021
C         32.87552        23.24507        -0.45236
C         31.58733        22.69500        -0.25331
C         32.98093        24.58464        -1.06341
C         31.76545        25.45781        -0.86541
C         33.16553        27.47676        -1.45016
C         31.87493        26.82664        -1.46965
C         33.21222        28.93168        -1.91231
C         31.92910        29.66962        -1.61147
C         33.13574        31.75254        -0.98915
C         31.91887        31.06245        -1.34408
C         33.12558        33.09388        -0.61222
C         31.93624        33.92359        -0.92422
C         32.54115        35.93564         0.44802
C         31.79429        35.33191        -0.51329
C         32.72712        37.37818         0.59915
C         31.64793        38.17204        -0.02192
C         32.98246        40.23029         0.46192
C         31.70114        39.60455         0.15026
C         33.06089        41.64231         0.39915
C         31.84550        42.42239         0.10771
C         33.16690        44.58024         0.54413
C         31.89445        43.91412         0.15456
C         33.17442        45.98409         0.71328
C         31.98690        46.78175         0.63670
C         31.94798        48.16052         0.58917
C         33.93068        21.26916         0.45073
C         35.41616        23.07552        -0.53043
C         34.05312        22.53322        -0.12002
C         35.50827        24.58906        -0.61908
C         34.30538        25.27951        -1.12778
C         35.65660        27.38091        -1.31785
C         34.32011        26.75751        -1.25030
C         35.69841        28.92632        -1.40140
C         34.43176        29.61400        -1.38425
C         35.65960        31.75056        -1.15993
C         34.40201        30.95207        -0.72848
C         35.64096        33.04268        -0.38638
C         34.35356        33.72477        -0.18741
C         35.51112        35.83859         0.50982
C         34.42878        34.89912         0.55069
C         35.39842        37.21217         0.74699
C         34.11643        37.99479         0.85479
C         35.41977        40.14697         0.71751
C         34.17287        39.46882         0.63253
C         35.46758        41.55723         0.70551
C         34.29258        42.33839         0.56804
C         34.31662        43.77593         0.64443
C         36.66189        25.28127        -0.39204
C         37.97147        27.40112        -0.44539
C         36.81029        26.70049        -0.69479
C         38.07513        28.84435        -0.58081
C         36.92466        29.59731        -0.92890
C         38.13134        31.69693        -0.60650
C         36.94394        31.00247        -0.88234
C         38.16848        33.21251        -0.72472
C         36.88377        33.81287        -0.18334
C         38.03491        35.95999         0.41649
C         36.78737        35.32617        -0.14071
C         37.92129        37.27340         0.79618
C         36.64314        37.98213         0.75804
C         36.62933        39.36431         0.82012
C         39.25543        29.55403        -0.25875
C         40.50913        31.70308         0.04284
C         39.30243        30.96269        -0.29555
C         40.51937        33.06017         0.19166
C         39.33695        33.86850        -0.00967
C         39.24965        35.17043         0.44030
O         13.47945        36.28657        -0.92459
O         35.92843        28.05236        -2.58380
O         36.37069        33.03817         0.93167
O         28.62212        40.36208        -1.45992
O         22.98633        11.68803        -1.48474
O         23.55134        36.74864         2.45802
O         26.99979        16.17456         2.60743
O         24.33897        42.90447         2.78163
O         18.86838        39.98298         2.63434
O         19.62046        30.38459        -1.22684
O         25.04833        34.06643         2.14605
O         33.30989        35.18411         1.33899
O         25.68060        26.40348        -0.13694
O         31.49161        33.75009        -2.30251
O         25.30688        17.24444        -2.49274
O         25.39503        48.43369        -0.59969
O         24.09767        50.63952        -0.87803
O         20.53870        11.69812         1.08959
O         33.15803        37.74011         1.94449
O         33.68985        24.62614        -2.33252
O         20.36140        37.77570         2.84207
O         22.82662        16.05057        -2.70561
O         21.03711        22.87653        -3.48611
O         21.50343        30.54293         1.69330
O         17.68235        13.91429        -2.57158
O         23.64523        31.85416         1.90970
O         14.17599        39.70201        -1.08344
O         30.25026        45.58435        -0.69089
O         15.26391        42.21577         1.66730
O         23.83596        22.70843        -3.65899
O         25.12232        57.74649         0.96069
O         21.84297        44.07497        -0.63899
O         22.26747        58.54155        -2.41243
O         22.91630        45.44285         2.48225
O         26.47078        19.33081         1.27593
O         15.28102        43.81598        -1.53873
O         16.24503        20.58960        -3.03338
O         23.11200        53.82114        -0.98075
O         31.97108        43.23134        -1.13811
O         30.05734        47.60926         2.47623
O         13.79248        27.32487        -1.98350
O         25.08734        55.07138         1.76020
O         21.89209        56.53382         1.26939
O         20.35172        53.99488         1.78259
O         26.48816        44.24197         2.92172
O         20.79851        35.34956         3.11394
H         20.41866        36.13368         3.58059
O         13.19484        45.76018        -2.05391
H         13.89777        45.15727        -2.39016
O         24.42131        37.85725        -0.96443
H         25.00407        37.11863        -1.28276
O         28.25551        53.48680         2.44004
H         27.45750        54.01199         2.67286
O         17.18260        29.50402        -1.77981
H         16.34658        29.92474        -2.10252
O         18.13290        32.90386         2.46407
H         19.00909        32.74995         2.90553
O         29.52430        17.40081         3.69238
H         28.60657        17.08688         3.86915
O         35.56886        32.05128        -2.56309
H         36.41506        32.47824        -2.83152
O         17.27985        33.70973        -0.99531
H         16.51694        34.21417        -1.35146
O         30.74905        36.17654        -2.55108
H         29.99990        36.74125        -2.85462
O         15.69667        28.54006         1.47797
H         16.58384        28.29262         1.83875
O         22.15356        52.23717         2.26831
H         21.62744        52.94950         2.70560
O         30.16666        48.56781        -0.98707
H         30.92234        48.69331        -1.59819
O         26.94286        35.65936         2.05878
H         26.53929        34.91803         2.58028
O         20.97558        18.98579         0.13536
H         20.14910        19.34918         0.51838
O         27.59265        25.24729        -3.89781
H         26.86908        24.92919        -4.49984
O         14.57578        29.88351        -1.73421
H         14.29957        29.05504        -2.20966
O         29.73362        26.72524        -3.65439
H         29.07955        26.09519        -4.04633
O         19.35672        14.11150         0.62317
H         19.82560        13.40182         1.12160
O         24.86831         7.83052         0.16515
H         25.74448         8.22300        -0.04029
O         22.46433        39.50370         2.73412
H         21.73719        39.05432         3.22727
O         25.46786        50.33417         2.53066
H         26.34753        50.34055         2.98369
O         19.71706        12.13403        -2.48209
H         18.97082        12.57794        -2.95420
O         22.14889         7.65199        -0.48235
H         23.12348         7.66708        -0.64509
O         19.91069        33.61280        -0.72489
H         19.05066        33.78223        -1.18546
O         34.51515        30.70894         0.70664
H         34.88880        31.50948         1.13816
O         12.24542        30.46434         2.50169
H         12.43348        31.31530         2.95257
O         22.99411        40.13739        -0.82931
H         23.84033        40.13518        -1.32569
O         22.03408        29.80610        -1.86185
H         21.12565        30.16255        -2.03905
O         20.75275        32.75664         2.70457
H         21.45278        32.12553         2.99499
O         29.20233        37.14047         1.48887
H         28.64548        36.55100         2.06130
O         26.42190        27.51419        -3.53064
H         26.96829        27.12737        -4.25215
O         29.77435        20.11415         2.67421
H         29.68459        19.32711         3.26885
O         31.78120        25.70441         0.58797
H         30.95587        26.17691         0.82737
O         33.33463        28.86940        -3.37163
H         34.21628        28.46938        -3.56465
O         28.29304        50.71703         2.85546
H         28.38022        51.70365         2.95071
O         25.77385        53.09217        -1.24415
H         25.29710        52.27787        -1.52594
O         17.89660        42.33492         2.34106
H         18.32139        41.79820         3.04956
O         17.53848        41.71747        -1.23368
H         16.93029        42.15053        -1.87267
O         38.23332        33.50862        -2.14901
H         37.96743        34.45343        -2.26465
O         12.86359        23.20045        -2.84930
H         13.60678        23.65550        -3.29984
O         18.47632        50.20679        -1.88833
H         17.70058        49.74710        -2.27509
O         36.71726        35.71875        -1.55856
H         36.74866        36.69933        -1.59729
O         23.31571        26.70203         0.90369
H         24.26263        26.64828         1.18187
O         28.22215        46.00344         3.20491
H         28.74487        46.78264         3.51353
O         14.84855        33.65662         2.76731
H         15.79286        33.46926         2.97256
O         18.31123        28.42851         1.53236
H         19.23095        28.17663         1.80885
O         21.69370        37.85921        -0.48861
H         22.27119        38.48821        -0.99587
O         25.26416        24.75425        -4.02612
H         24.60440        24.04945        -4.25582
O         29.30658        39.72231         1.93839
H         29.24974        38.73139         2.02292
O         26.14857        35.66783        -1.49996
H         26.74819        35.57265        -2.27121
O         23.41239        18.60470        -3.69834
H         23.89474        17.75781        -3.84560
O         28.64593        37.90061        -2.05675
H         28.29367        38.77189        -2.37659
O         35.68584        22.57888        -1.85835
H         35.05257        23.03202        -2.46252
O         21.01131        28.18116         1.35639
H         21.83135        27.62899         1.45096
H          5.02924        30.99718         0.83450
H          5.03785        33.46501         0.85574
H          7.48516        26.70365         0.45633
H          6.26186        28.84727         0.71086
H          6.28995        35.61096         0.79324
H          7.53984        37.74668         0.70725
H          9.99376        22.48646        -0.13231
H          8.73948        24.56255         0.07894
H          8.75267        39.86876         0.61137
H          9.96292        42.03858         0.39406
H         12.40869        18.28405        -0.73497
H         11.21439        20.39451        -0.39001
H         11.21782        44.24520         0.19935
H         12.48708        46.39532        -0.21309
H         14.83482        14.03855        -0.77550
H         13.60955        16.14638        -0.87184
H         13.68428        48.49072        -0.39635
H         14.83666        50.63844        -0.17320
H         17.29897         9.81911        -0.02330
H         16.10660        11.90406        -0.40150
H         16.01612        52.82678        -0.10696
H         17.22663        54.94602        -0.38255
H         19.51386         6.14280         2.26358
H         18.43519         7.91110         1.00811
H         18.40468        57.04333        -0.71901
H         19.37265        59.15092        -0.98334
H         22.58144         3.41265         4.68330
H         20.58151         4.34541         3.54144
H         23.18520        62.20910        -2.52450
H         21.22122        61.51199        -1.21783
H         24.78738         4.54505         4.52279
H         26.13503         6.48224         3.83431
H         26.64312        59.22648        -1.42278
H         25.18767        60.96786        -2.67976
H         27.40924         8.49213         3.27074
H         28.61642        10.54823         2.88027
H         29.15971        55.11017         0.07470
H         27.91381        57.10952        -0.70325
H         29.76976        12.71077         2.74940
H         30.83857        14.94951         2.80546
H         31.53921        50.89346         0.16465
H         30.30114        52.98093         0.12740
H         32.10742        16.89419         2.14073
H         33.47556        18.78582         1.35954
H         34.13848        46.49244         0.86891
H         32.87517        48.75276         0.63030
H         34.83408        20.69494         0.70550
H         36.21213        22.67209         0.14404
H         36.44121        42.05878         0.80992
H         35.28243        44.26049         0.85459
H         37.54432        24.75321         0.00243
H         38.83963        26.86416        -0.03296
H         38.80929        37.83855         1.11896
H         37.58663        39.90237         0.89482
H         40.16011        28.99417         0.02247
H         41.42588        31.12895         0.24382
H         41.43729        33.56182         0.53517
H         40.13729        35.62736         0.90775
