         630
 CSIRO Nanostructure Databank - Neutral Graphene Oxide Data Set
C         22.88333        27.42830        -0.35909
C         22.88365        28.76727        -0.60392
C         23.02289        31.74553        -1.07161
C         23.06001        33.13086        -1.12532
C         23.13465        36.06759        -1.26216
C         23.12450        37.41957        -1.19601
C         23.22090        40.39968        -1.33773
C         23.22394        41.74135        -1.57429
C         23.33570        44.69268        -1.96706
C         23.36972        46.07212        -1.99243
C         25.34429        24.59806         0.25346
C         24.12434        25.30743         0.09915
C         25.33912        27.43405         0.04518
C         24.09217        26.67610        -0.11222
C         25.42442        28.79160        -0.55007
C         24.13669        29.51252        -0.85760
C         25.42814        31.67389        -0.66342
C         24.19247        30.99580        -0.86657
C         25.45028        33.08974        -0.66907
C         24.27180        33.83319        -0.92429
C         25.56759        35.95090        -0.93648
C         24.33063        35.28472        -1.01536
C         25.60281        37.42193        -1.30511
C         24.37029        38.16958        -0.79001
C         25.66016        40.25917        -1.25780
C         24.42868        39.62747        -1.22585
C         25.77378        41.67075        -1.66422
C         24.46028        42.46079        -1.88802
C         25.76405        44.58915        -1.63280
C         24.52060        43.93678        -1.80550
C         25.80101        46.02056        -1.61155
C         24.59645        46.75908        -1.81498
C         25.81923        48.84820        -1.59324
C         24.63831        48.17971        -1.82359
C         27.87582        23.07224         0.27271
C         27.84756        24.48384         0.18652
C         26.59255        25.21240         0.23215
C         27.90692        27.38105        -0.09008
C         26.65139        26.68040         0.24233
C         27.90090        28.79082        -0.25485
C         26.67762        29.54886        -0.35058
C         27.93436        31.66136        -0.45186
C         26.67403        30.93532        -0.45726
C         27.95813        33.04042        -0.48023
C         26.69947        33.81969        -0.22706
C         28.01221        35.94608        -0.60335
C         26.77059        35.25740        -0.69094
C         28.03533        37.39968        -0.62633
C         26.86632        38.12502        -0.87378
C         28.07604        40.24964        -0.66584
C         26.88256        39.54553        -0.91001
C         28.12913        41.70105        -0.81401
C         26.98157        42.43398        -1.31321
C         28.20545        44.57355        -1.15433
C         26.98369        43.83910        -1.38544
C         28.23027        45.96813        -1.15721
C         27.02222        46.72552        -1.36739
C         28.23450        48.88349        -0.97421
C         27.02963        48.14931        -1.33500
C         28.29138        50.30157        -0.97437
C         30.31560        23.02740         0.16954
C         29.06672        22.36820         0.26120
C         30.32216        24.45610         0.07798
C         29.08667        25.18417         0.07426
C         30.35822        27.27736        -0.26311
C         29.11149        26.61698        -0.09444
C         30.36382        28.71455        -0.55468
C         29.13372        29.50027        -0.42400
C         30.42592        31.60137        -0.25818
C         29.17472        30.89994        -0.47001
C         30.43744        33.04334        -0.16736
C         29.25114        33.76505        -0.75469
C         30.44880        35.91692        -0.21132
C         29.22640        35.23870        -0.43524
C         30.47272        37.37010        -0.19623
C         29.26267        38.09491        -0.39504
C         30.50485        40.20106        -0.11990
C         29.28389        39.52181        -0.39069
C         30.42243        41.66929         0.19962
C         29.31192        42.36392        -0.55183
C         30.72076        44.48465        -0.56347
C         29.43684        43.78257        -0.91769
C         30.72446        45.97598        -0.51414
C         29.47518        46.72342        -0.88167
C         30.53386        48.85585        -0.10990
C         29.39247        48.17336        -0.57420
C         30.59881        50.27087        -0.18319
C         29.45218        50.97246        -0.64197
C         32.80026        20.18465         0.23631
C         31.60117        20.87114         0.23007
C         32.79708        22.98860         0.09026
C         31.55875        22.28727         0.16076
C         32.79534        24.41599         0.06291
C         31.57036        25.15375         0.02202
C         32.81663        27.31715         0.02683
C         31.58121        26.58328        -0.12382
C         32.87719        28.70317         0.03179
C         31.70225        29.47539        -0.39455
C         32.77497        31.53345         0.55044
C         31.61550        30.89401        -0.07827
C         32.73411        33.02707         0.77416
C         31.57074        33.74945         0.21434
C         32.89562        35.85470         0.23781
C         31.63681        35.18405         0.08161
C         32.94879        37.30628        -0.05227
C         31.68692        38.06824        -0.06481
C         32.95654        40.19203         0.33550
C         31.71132        39.49135         0.02271
C         32.94732        41.61815         0.52537
C         31.75381        42.38068         0.23585
C         32.95031        44.50185         0.60848
C         31.80676        43.75995         0.13680
C         32.95765        45.88846         0.72391
C         31.70932        46.62605         0.40775
C         32.88222        48.83486         0.90622
C         31.64846        48.11644         0.53338
C         32.85728        50.23940         0.86296
C         31.80527        50.95287         0.21015
C         33.15150        53.01640         0.11333
C         32.05681        52.29982        -0.24707
C         35.36713        18.74574         0.30339
C         35.30674        20.15185         0.15866
C         34.04727        20.85952         0.15950
C         35.28187        22.99238        -0.04819
C         34.04140        22.27926         0.07747
C         35.25458        24.41831        -0.06626
C         34.04607        25.09720         0.04799
C         35.32799        27.27441         0.48628
C         34.03580        26.54782         0.33069
C         35.33798        28.74670         0.44594
C         34.09393        29.43596         0.33906
C         35.29396        31.55983         0.63853
C         34.07599        30.82941         0.51380
C         35.29120        32.98223         0.74697
C         34.03201        33.76615         1.09433
C         35.32793        35.86855         0.74322
C         34.06770        35.18543         0.57475
C         35.40208        37.31053         0.72603
C         34.23362        38.05631         0.22883
C         35.38341        40.17876         0.82914
C         34.16605        39.50494         0.49289
C         35.37568        41.59938         1.02171
C         34.12723        42.28199         0.88970
C         35.29402        44.46318         1.63152
C         34.05500        43.72165         1.18379
C         35.29626        45.92438         1.46891
C         34.11992        46.61881         1.18191
C         35.29585        48.78364         1.32159
C         34.09506        48.09273         1.19257
C         35.32757        50.25909         1.37568
C         34.03330        51.00810         1.31823
C         35.38418        53.15681         1.32003
C         34.00590        52.53172         1.24954
C         35.42424        54.56867         1.55207
C         37.80467        18.75303         0.15323
C         36.57507        18.07198         0.31412
C         37.77919        20.16029        -0.01944
C         36.53355        20.87194         0.01196
C         37.77322        23.02576        -0.22059
C         36.52030        22.29238        -0.10340
C         37.77213        24.40323        -0.29071
C         36.50105        25.19210        -0.42360
C         37.77176        27.23039         0.37332
C         36.60170        26.56951         0.21585
C         37.81040        28.65904         0.89531
C         36.54050        29.43188         0.59764
C         37.78427        31.56891         0.64788
C         36.54188        30.85318         0.62342
C         37.76551        32.98342         0.70382
C         36.50988        33.68042         0.77483
C         37.75376        35.78573         1.26806
C         36.50059        35.11585         0.89962
C         37.75703        37.28057         1.50809
C         36.55101        38.01374         1.08055
C         37.83189        40.16589         1.13462
C         36.59345        39.45541         1.01406
C         37.82493        41.60535         1.18791
C         36.59017        42.29374         1.26244
C         37.84838        44.49205         1.49593
C         36.60272        43.69739         1.84314
C         37.83361        45.85691         1.63802
C         36.56103        46.60902         1.80641
C         37.82636        48.86184         1.52356
C         36.55453        48.11907         1.71146
C         37.82740        50.18334         1.19925
C         36.56902        50.96233         0.86755
C         37.81736        53.08829         1.48657
C         36.59948        52.43038         1.27598
C         37.83702        54.44754         2.17645
C         36.57159        55.21403         1.89765
C         40.31107        15.92531         0.49329
C         39.11603        16.60971         0.43817
C         40.25658        18.68655        -0.13922
C         39.07461        18.02214         0.14942
C         40.23949        20.11877        -0.46333
C         39.00182        20.88891        -0.24489
C         40.28863        23.00092        -0.35017
C         39.02569        22.27957        -0.29710
C         40.29400        24.41667        -0.30596
C         39.02909        25.20950        -0.47173
C         40.29456        27.27799         0.10996
C         39.06481        26.45274         0.43571
C         40.24598        28.72244         0.19804
C         39.05807        29.41762         0.48540
C         40.23380        31.59095         0.34348
C         39.02608        30.84486         0.51369
C         40.22863        33.02158         0.39419
C         38.99463        33.73721         0.65036
C         40.21061        35.91198         0.77028
C         39.01334        35.11394         0.91227
C         40.26645        37.24824         1.08926
C         39.08926        38.01937         1.66353
C         40.28894        40.16606         1.06816
C         39.06894        39.46655         1.19756
C         40.28698        41.60950         1.02505
C         39.07208        42.32909         1.19491
C         40.32152        44.46688         1.24963
C         39.09723        43.76638         1.31108
C         40.36971        45.90688         1.43079
C         39.10534        46.60449         1.74573
C         40.37392        48.80789         1.38828
C         39.10696        48.13313         1.72802
C         40.37440        50.19186         1.14161
C         39.09286        50.89534         0.96531
C         40.37384        53.05722         1.34314
C         39.07697        52.41700         1.14507
C         40.40889        54.50732         1.57835
C         39.13070        55.25248         1.89805
C         40.20456        57.29621         1.00898
C         39.08926        56.65721         1.44495
C         42.76771        15.92258         0.46902
C         41.54516        16.56454         0.22752
C         42.80396        18.73607        -0.04517
C         41.55024        17.94202        -0.37856
C         42.81562        20.13403        -0.16931
C         41.56532        20.86213        -0.49751
C         42.75693        23.03267        -0.21501
C         41.53208        22.32173        -0.32428
C         42.74205        24.45239        -0.20464
C         41.49270        25.14019        -0.23769
C         42.70035        27.32404        -0.59127
C         41.45250        26.59469        -0.19463
C         42.67265        28.77036        -0.19726
C         41.48281        29.45635         0.00432
C         42.64317        31.65495        -0.05313
C         41.46217        30.90727         0.10491
C         42.64218        33.06970         0.03059
C         41.42048        33.75019         0.22636
C         42.67288        35.94831         0.15426
C         41.34464        35.24680         0.01914
C         42.73073        37.26826         0.52438
C         41.59520        37.95845         1.24847
C         42.73138        40.17683         0.82365
C         41.54830        39.46481         0.99792
C         42.74532        41.61221         0.71368
C         41.52084        42.31987         0.87921
C         42.76993        44.43884         0.87392
C         41.54677        43.74857         0.98769
C         42.86614        45.84505         1.42198
C         41.56251        46.61942         1.40417
C         42.81199        48.80218         1.23468
C         41.60184        48.07746         1.39220
C         42.83117        50.22189         1.08856
C         41.58225        50.92086         1.04317
C         42.79042        53.08615         0.87672
C         41.56264        52.36466         1.06462
C         42.75254        54.51706         0.73814
C         41.55492        55.23053         1.00811
C         42.62848        57.31603         0.38567
C         41.47530        56.62229         0.82904
C         43.97011        16.61924         0.42471
C         45.24128        18.76771         0.36546
C         44.01038        18.03296         0.24080
C         45.24451        20.18637         0.22552
C         44.01684        20.87922        -0.01393
C         45.22471        23.03286        -0.05381
C         44.01326        22.31769        -0.11104
C         45.21462        24.47420        -0.10097
C         43.98191        25.18801        -0.15551
C         45.19324        27.31240        -0.09667
C         43.98235        26.60459        -0.21840
C         45.22167        28.77218        -0.13970
C         43.93981        29.48297        -0.39556
C         45.16007        31.71324        -0.11378
C         43.91366        30.97572        -0.34330
C         45.14632        33.08556        -0.17398
C         43.88002        33.80478        -0.15083
C         45.12349        35.90803        -0.44219
C         43.87329        35.19399        -0.14738
C         45.17439        37.39800        -0.16266
C         44.01686        37.97805         0.55521
C         45.24132        40.21524         0.31239
C         44.03716        39.48601         0.74395
C         45.21434        41.62762         0.26793
C         43.96603        42.32090         0.49696
C         45.19494        44.45592         0.27422
C         43.97082        43.74794         0.53522
C         45.17323        45.92432         0.20132
C         43.96943        46.64732         0.76140
C         45.23091        48.84684         0.61496
C         44.13459        48.05368         1.31118
C         45.37498        50.28040         1.09026
C         44.04467        50.97745         0.95180
C         45.22936        53.11656         0.44137
C         44.01869        52.37877         0.75780
C         45.16016        54.51079         0.17323
C         43.91434        55.23591         0.34663
C         43.81728        56.63943         0.17190
C         47.66154        18.80868         0.68422
C         46.48025        18.11060         0.61171
C         47.70084        20.22293         0.51801
C         46.47721        20.91282         0.30362
C         47.70746        23.03478         0.12554
C         46.48541        22.33658         0.12046
C         47.73319        24.47477        -0.31539
C         46.43414        25.19764        -0.05572
C         47.66939        27.31731         0.31127
C         46.41394        26.59054         0.03354
C         47.65816        28.81585         0.31531
C         46.37589        29.49086         0.02156
C         47.67407        31.66509        -0.07994
C         46.39186        30.97073         0.31079
C         47.64771        33.07004        -0.25093
C         46.41036        33.80317        -0.24694
C         47.62115        35.91714        -0.59500
C         46.40514        35.18746        -0.43826
C         47.63617        37.37631        -0.48935
C         46.46176        38.08486        -0.07845
C         47.67078        40.24099        -0.08526
C         46.46279        39.50718         0.09486
C         47.65975        41.64699        -0.15269
C         46.42566        42.34977         0.03880
C         47.64094        44.51517        -0.18405
C         46.41246        43.78489         0.04509
C         47.64277        45.95874        -0.15654
C         46.43877        46.65096         0.03731
C         47.70306        48.84466        -0.02018
C         46.42542        48.11770         0.04496
C         47.69370        50.26581         0.13970
C         46.53763        50.99711         0.44995
C         47.64106        53.16241        -0.06702
C         46.48343        52.42950         0.31458
C         47.53117        54.52735        -0.38938
C         46.32297        55.18838        -0.26514
C         50.18758        20.29349         0.74687
C         48.94263        20.95002         0.54799
C         50.18797        23.08719         0.36010
C         48.94290        22.36071         0.33948
C         50.19308        24.52873         0.24762
C         48.97680        25.22725         0.09417
C         50.16445        27.38120         0.23981
C         48.96292        26.62687         0.17529
C         50.14235        28.83234         0.14728
C         48.93218        29.53769         0.10970
C         50.13579        31.67312        -0.25285
C         48.89932        30.96091        -0.08711
C         50.11766        33.07708        -0.45303
C         48.86866        33.77898        -0.46387
C         50.06791        35.87347        -1.01829
C         48.82616        35.18739        -0.65984
C         50.04355        37.40416        -1.04003
C         48.83677        38.07978        -0.59769
C         50.11287        40.23878        -0.69442
C         48.97042        39.48475        -0.06380
C         50.06270        41.65632        -0.76358
C         48.87712        42.37581        -0.45310
C         50.02352        44.56609        -0.80272
C         48.84757        43.81957        -0.46915
C         50.05421        45.97911        -0.73552
C         48.86979        46.69384        -0.38332
C         50.12820        48.84682        -0.51089
C         48.88894        48.12604        -0.28320
C         50.16868        50.25204        -0.41983
C         48.97997        50.97591         0.05032
C         50.15052        53.13498        -0.63581
C         48.96104        52.50427        -0.04224
C         51.37230        20.99302         0.75605
C         52.65463        23.14267         0.64496
C         51.40283        22.40446         0.57740
C         52.65186        24.56415         0.52704
C         51.41167        25.26318         0.36394
C         52.64347        27.42036         0.30322
C         51.40273        26.68827         0.29517
C         52.62625        28.85279         0.12959
C         51.38991        29.54844         0.03266
C         52.61114        31.67853        -0.26898
C         51.38054        30.96358        -0.16799
C         52.60045        33.09915        -0.47264
C         51.36239        33.79698        -0.57728
C         52.55926        35.93680        -0.83099
C         51.35648        35.19777        -0.80178
C         52.55227        37.40020        -0.94366
C         51.32089        38.12082        -0.97932
C         52.51544        40.21422        -1.54393
C         51.28392        39.52698        -1.01499
C         52.46427        41.70713        -1.35247
C         51.28310        42.36617        -1.12810
C         52.48355        44.60363        -1.56426
C         51.20440        43.83620        -1.30577
C         52.49416        46.05069        -1.29362
C         51.29193        46.71320        -0.97912
C         52.52556        48.85653        -1.10336
C         51.31569        48.13554        -0.85727
C         52.54169        50.28267        -1.02424
C         51.35212        50.98236        -0.72570
C         51.28043        52.42573        -0.86291
C         55.06690        23.21156         0.97531
C         53.88050        22.49083         0.86694
C         55.08967        24.60236         0.82939
C         53.87602        25.29668         0.60523
C         55.11089        27.45952         0.40509
C         53.86224        26.73395         0.45593
C         55.10215        28.87605         0.16340
C         53.85786        29.57216         0.04489
C         55.09136        31.70823        -0.23375
C         53.85309        30.98654        -0.15768
C         55.09317        33.12878        -0.44547
C         53.82479        33.82463        -0.57923
C         55.04091        35.98660        -0.85955
C         53.78266        35.22669        -0.73971
C         54.98216        37.42485        -0.46945
C         53.73677        38.13883        -0.79623
C         54.97113        40.25805        -0.91802
C         53.78574        39.56039        -1.01501
C         55.03954        41.66898        -1.35907
C         53.73173        42.41989        -1.60879
C         54.97610        44.55631        -1.51490
C         53.77664        43.88452        -1.54189
C         54.98086        46.02538        -1.88605
C         53.70934        46.75851        -1.48368
C         54.95683        48.88141        -1.92999
C         53.71640        48.15154        -1.44830
C         54.92391        50.34827        -1.61231
C         53.79844        50.98013        -1.22863
C         57.61915        24.63205         0.60402
C         56.37653        25.36156         1.05767
C         57.56111        27.47480         0.35687
C         56.33340        26.78226         0.54393
C         57.56757        28.88918         0.15986
C         56.32766        29.59145         0.08088
C         57.56534        31.72872        -0.14962
C         56.32464        31.01601        -0.10671
C         57.56024        33.15241        -0.28123
C         56.31731        33.82477        -0.46543
C         57.57219        36.05337        -0.39578
C         56.34795        35.27752        -0.71286
C         57.54190        37.46542        -0.34185
C         56.24055        38.17395        -0.19970
C         57.48644        40.36683        -0.55364
C         56.18138        39.70319        -0.17544
C         57.47279        41.77555        -0.77928
C         56.24863        42.46557        -1.08697
C         57.43749        44.61757        -1.08220
C         56.22721        43.85666        -1.27536
C         57.40249        46.05625        -1.10713
C         56.21544        46.76951        -1.42999
C         57.37975        48.87752        -1.08020
C         56.20766        48.16686        -1.43330
C         58.76079        25.30189         0.34688
C         59.99737        27.44740         0.16083
C         58.79507        26.75261         0.31851
C         60.00829        28.84077         0.06104
C         58.81347        29.58121         0.05060
C         60.00093        31.77265        -0.10012
C         58.80864        31.03044        -0.06756
C         59.99129        33.16404        -0.18233
C         58.79220        33.88574        -0.26399
C         59.97913        36.10784        -0.16027
C         58.79319        35.35084        -0.28433
C         59.95606        37.49475        -0.21091
C         58.74170        38.20882        -0.30414
C         59.91209        40.41383        -0.52794
C         58.70352        39.67406        -0.43826
C         59.90692        41.78907        -0.63886
C         58.69321        42.50890        -0.75836
C         59.84096        44.72019        -0.58805
C         58.65950        43.95181        -0.83039
C         59.80298        46.08935        -0.55098
C         58.58640        46.78962        -0.80562
C         58.54676        48.20437        -0.77845
O         44.91561        36.89672        -1.51822
O         47.60559        28.06892         1.59645
O         55.81722        35.67360        -2.05681
O         44.35375        38.55563         1.84708
O         32.40117        32.11366         1.87439
O         54.51606        41.86546        -2.73055
O         36.46055        47.43393         3.01377
O         30.60755        46.54720        -1.84581
O         51.59596        44.24074        -2.67921
O         39.18833        47.39286         2.98775
O         25.23784        41.92744        -3.00207
O         39.02525        51.75964        -0.21184
O         40.11324        54.99251         2.96523
O         34.28379        44.03318         2.61549
O         33.85594        37.67740        -1.15222
O         34.65349        50.67442         2.61169
O         55.45182        37.61648         0.93045
O         24.94112        28.87244        -1.92965
O         30.51816        43.98065        -1.92345
O         43.94519        30.26135        -1.66937
O         49.94095        36.61073        -2.27583
O         31.18544        29.09312        -1.70656
O         31.10957        47.21664         1.60775
O         37.60011        36.36402         2.64383
O         45.33251        48.71756        -0.80665
O         34.60951        26.78710         1.69155
O         25.93717        27.32459         1.36760
O         44.04543        46.46984        -0.65001
O         49.23671        51.82333         1.22664
O         40.92192        20.42149        -1.75727
O         29.42293        33.69971        -2.22562
H         30.28771        34.11069        -2.43946
O         54.97333        48.79528        -3.38627
H         55.03364        47.83357        -3.62306
O         44.49885        47.89442         2.69590
H         44.77783        48.77501         3.04507
O         52.50060        39.99955        -2.99048
H         53.23270        40.55089        -3.35951
O         47.82890        24.41982        -1.79260
H         47.07559        23.87960        -2.11452
O         25.55140        37.49708        -2.75703
H         26.33505        37.03039        -3.11494
O         34.08338        33.91938         2.54702
H         33.62127        33.13294         2.92332
O         36.72931        43.47903         3.28002
H         35.81203        43.42506         3.63826
O         24.43461        38.15314         0.66607
H         23.62903        38.59239         1.00940
O         29.98707        41.72448         1.62036
H         29.21908        41.12052         1.71553
O         41.60597        17.74173        -1.84365
H         41.45916        18.63651        -2.24075
O         46.35438        31.02614         1.79219
H         46.96514        30.33407         2.13080
O         49.34318        39.33329         1.36997
H         48.54191        39.03107         1.84952
O         45.70402        50.24340         2.52869
H         45.84861        51.16800         2.82376
O         42.69876        27.34789        -2.07300
H         43.20875        28.13890        -2.35737
O         37.81062        54.16467         3.61120
H         38.74464        54.24644         3.92569
O         36.43844        50.91849        -0.58564
H         37.28030        51.29257        -0.94510
O         40.96861        35.40786        -1.39704
H         41.68709        35.01859        -1.94024
O         39.18188        26.00389         1.80975
H         38.99679        26.78778         2.37971
O         37.89194        28.52910         2.36188
H         37.01345        28.22231         2.67668
O         55.02420        46.03785        -3.35953
H         54.27165        45.49668        -3.68415
O         43.23160        45.66206         2.81994
H         42.43258        45.37839         3.31147
O         55.96061        40.11489         1.20953
H         55.50585        39.35529         1.64882
O         39.02539        25.73225        -1.84848
H         39.40326        25.04351        -2.43567
O         39.31967        38.14983         3.10822
H         38.85272        37.38235         3.52391
O         33.31926        52.96477         2.46492
H         33.72138        52.45540         3.20471
O         41.92683        37.80105         2.66350
H         41.11664        38.06876         3.17004
O         26.58721        33.90965         1.24937
H         25.79644        34.45629         1.44684
O         36.33211        25.48377        -1.85847
H         37.22170        25.77889        -2.18326
O         56.49834        25.47456         2.52408
H         57.31189        25.99113         2.70738
H         21.92482        26.89466        -0.26995
H         21.92419        29.29860        -0.67976
H         22.06477        31.23260        -1.23130
H         22.12738        33.67187        -1.32854
H         22.19489        35.54710        -1.49324
H         22.17755        37.95723        -1.34945
H         22.25953        39.90900        -1.12773
H         22.28431        42.30348        -1.47889
H         22.37800        44.17731        -2.12031
H         22.44768        46.64817        -2.15373
H         25.27900        23.50259         0.30824
H         23.18770        24.73264         0.05557
H         25.80896        49.94571        -1.58747
H         23.70917        48.74062        -1.99826
H         26.93619        22.51062         0.35813
H         27.41805        50.89146        -1.28148
H         29.02539        21.27341         0.33272
H         29.46491        52.06986        -0.68415
H         32.77165        19.08835         0.29215
H         30.66949        20.29248         0.28403
H         33.34416        54.00517        -0.32698
H         31.37189        52.71983        -0.99830
H         34.44405        18.16343         0.42195
H         34.47944        55.12800         1.48778
H         36.55895        16.98143         0.43503
H         36.52667        56.27636         2.17577
H         40.31990        14.87076         0.80777
H         38.19029        16.07216         0.67831
H         40.14299        58.35568         0.71830
H         38.13217        57.19759         1.45762
H         42.76811        14.86165         0.76130
H         42.57982        58.40374         0.23410
H         44.89596        16.06764         0.63159
H         44.69711        57.21902        -0.13716
H         48.58856        18.25000         0.86654
H         46.51067        17.02066         0.73662
H         48.41642        55.09443        -0.70530
H         46.28504        56.25926        -0.50073
H         50.22066        19.20691         0.89883
H         50.12975        54.20489        -0.88458
H         52.30471        20.43722         0.91829
H         52.15039        52.95394        -1.27528
H         55.99239        22.66267         1.19416
H         53.92300        21.40011         0.98088
H         55.82906        50.94175        -1.80382
H         53.83446        52.06435        -1.05410
H         57.62953        23.53307         0.60816
H         57.37757        49.97527        -1.06566
H         59.68904        24.75824         0.11407
H         60.94426        26.89022         0.11974
H         60.97626        29.34891        -0.04001
H         60.97208        31.26391        -0.04166
H         60.95531        33.68948        -0.18379
H         60.94980        35.60630        -0.05173
H         60.91201        38.03093        -0.15137
H         60.87920        39.89836        -0.46816
H         60.86893        42.31751        -0.65852
H         60.79158        44.20955        -0.38649
H         60.71301        46.66539        -0.33002
H         59.46088        48.76285        -0.53101
