         404
 CSIRO Nanostructure Databank - Neutral Graphene Oxide Data Set
C          1.43905         3.28308         1.41447
C          0.22113         3.92934         1.55578
C          1.27660         6.10188         1.15496
C          0.13674         5.32199         1.42440
C          1.18136         7.53980         0.94123
C         -0.00471         8.25194         1.03658
C          1.06639        10.46111         0.82141
C         -0.06312         9.66762         0.97415
C          1.04327        11.90286         0.97925
C         -0.12666        12.65110         0.97832
C          1.01702        14.84121         0.98665
C         -0.13927        14.06880         0.96285
C          1.02015        16.28467         0.88465
C         -0.12691        17.02780         0.65876
C          1.04609        19.20890         0.75123
C         -0.11437        18.44073         0.60876
C          0.96036        20.65450         0.44761
C         -0.00104        21.22888        -0.41408
C          1.11747        23.42012        -0.33564
C          0.03192        22.59418        -0.70769
C          1.18034        24.84133        -0.65882
C          0.10485        25.56605        -1.11955
C          1.26235        27.73730        -1.07097
C          0.15461        26.98436        -1.34685
C          1.49919        29.17103        -1.52379
C          0.27749        29.87191        -2.09868
C          0.95469        32.19120        -1.67221
C          0.11545        31.19115        -2.33901
C          1.70171        33.21278        -2.21201
C          1.41031        33.55039        -3.60189
C          2.95230        35.48130        -3.56693
C          1.92630        34.62053        -4.23006
C          2.77200        36.95161        -3.85966
C          3.86539         3.37147         1.00188
C          2.61919         4.03089         1.16110
C          3.76030         6.20723         0.84845
C          2.54519         5.45435         1.04356
C          3.71762         7.61044         0.69448
C          2.40023         8.26269         0.54437
C          3.61424        10.53583         0.57754
C          2.33843         9.79351         0.47873
C          3.58225        11.88969         0.81289
C          2.33090        12.61361         1.14261
C          3.53663        14.91097         0.80556
C          2.31212        14.15162         1.17184
C          3.53512        16.28760         0.74336
C          2.29631        17.02035         1.23683
C          3.56299        19.13768         0.97619
C          2.30097        18.51811         0.95968
C          3.72167        20.53447         1.26745
C          1.92270        21.55435         0.94574
C          3.47686        23.48660         0.59479
C          2.18045        22.83289         0.41026
C          3.55442        24.87457         0.33658
C          2.45602        25.54485        -0.41060
C          3.52634        27.81055         0.13547
C          2.48908        27.03611        -0.61948
C          3.61161        29.27508        -0.07018
C          2.41770        29.93300        -0.56557
C          3.37673        32.11204         0.27993
C          2.30426        31.25169        -0.22537
C          3.37833        33.60534        -0.18289
C          2.67997        34.04068        -1.46192
C          3.93986        36.20401        -1.38153
C          3.11850        35.19216        -2.08409
C          4.30906        37.47780        -2.05350
C          3.48619        37.87395        -3.18218
C          6.28074         3.42304         0.55167
C          5.05097         4.08911         0.79469
C          6.22103         6.26689         0.63676
C          5.01901         5.53211         0.77259
C          6.18285         7.69388         0.59576
C          4.91586         8.36895         0.59426
C          6.08860        10.50992         0.42005
C          4.87834         9.80121         0.49440
C          5.99281        11.97062        -0.00684
C          4.83518        12.66385         0.73240
C          5.95035        14.85126        -0.00940
C          4.79592        14.16179         0.64260
C          5.94813        16.36218        -0.03659
C          4.73508        17.03602         0.45561
C          5.99240        19.15231         0.35981
C          4.77709        18.41950         0.62498
C          5.94895        20.62267         0.31507
C          4.76457        21.32543         0.84159
C          5.93532        23.49843         0.82521
C          4.70642        22.78088         0.82176
C          5.96237        24.90948         0.83449
C          4.74148        25.58639         0.60089
C          5.94504        27.79494         1.02565
C          4.67373        27.05716         0.74820
C          5.91953        29.28603         0.86594
C          4.68707        29.99422         0.41922
C          5.88661        32.14215         0.59498
C          4.69103        31.44749         0.49827
C          5.91124        33.60668         0.71063
C          4.63417        34.34630         0.23399
C          5.97932        36.54482         0.16678
C          4.75643        35.76813        -0.20997
C          6.22370        37.83701        -0.51895
C          5.31081        38.26895        -1.55136
C          8.66968         3.48224         0.00169
C          7.47167         4.13839         0.38131
C          8.70499         6.26786         0.49740
C          7.48356         5.57828         0.51602
C          8.69233         7.72747         0.54455
C          7.40613         8.42959         0.53233
C          8.58362        10.64364         0.40039
C          7.33881         9.84021         0.48422
C          8.43022        12.11788         0.60596
C          7.25194        12.76549         0.24109
C          8.44692        14.91738         0.07318
C          7.24479        14.17180         0.11854
C          8.44885        16.36408        -0.02430
C          7.24690        17.07201         0.01519
C          8.48623        19.22486         0.17056
C          7.22390        18.50264         0.16091
C          8.52539        20.63074         0.35586
C          7.25657        21.37737         0.35043
C          8.51693        23.50049         0.98931
C          7.21233        22.75123         0.92645
C          8.47110        24.97080         0.90159
C          7.22637        25.65802         0.90424
C          8.45658        27.80918         0.84628
C          7.23069        27.07020         0.89058
C          8.47178        29.23698         0.73747
C          7.20218        29.94530         0.49966
C          8.45648        32.16111         0.53485
C          7.17933        31.44767         0.38834
C          8.44099        33.59412         0.60173
C          7.21176        34.31254         0.67844
C          8.48474        36.52875         0.76070
C          7.18819        35.78516         0.70684
C          8.54111        37.94990         0.34465
C          7.39533        38.53656        -0.29017
C         10.99011         3.39337        -0.64426
C          9.90871         4.13109        -0.03930
C         11.15927         6.27413         0.46384
C          9.96391         5.54652         0.36626
C         11.20487         7.74914         0.75681
C          9.88204         8.43645         0.55186
C         11.26016        10.54839         0.53795
C          9.91460         9.90238         0.43121
C         11.42812        11.89006         0.83244
C          9.51802        12.96148         0.89856
C         10.97042        14.82743        -0.10353
C          9.65759        14.25676         0.40892
C         10.93341        16.33823        -0.00309
C          9.73562        17.05189         0.00201
C         10.92508        19.24523         0.08720
C          9.71742        18.51072         0.06978
C         10.96494        20.65244         0.23586
C          9.74361        21.35460         0.41735
C         10.93322        23.52520         0.50891
C          9.76369        22.79803         0.60561
C         10.93441        24.95605         0.69940
C          9.68874        25.67618         0.79953
C         10.93335        27.82213         0.75248
C          9.69830        27.10280         0.80146
C         10.90579        29.23539         0.73233
C          9.68061        29.96195         0.67496
C         10.89638        32.15252         0.45548
C          9.67181        31.43173         0.56327
C         10.89993        33.56266         0.35525
C          9.70377        34.27369         0.53220
C         11.01881        36.46588         0.48271
C          9.76147        35.73727         0.71170
C         11.00712        37.90377         0.56243
C          9.75814        38.60586         0.39572
C         13.50030         3.38885        -1.13355
C         12.33968         3.64800        -0.38644
C         13.61244         6.29820        -0.03803
C         12.45590         5.67791         0.41523
C         13.60307         7.73501        -0.17058
C         12.41237         8.43119         0.10630
C         13.61882        10.58679        -0.14552
C         12.42096         9.84904         0.09998
C         13.62356        12.01641        -0.09151
C         12.46047        12.72056         0.32423
C         13.50668        14.86013        -0.12563
C         12.33538        14.15233         0.19519
C         13.49870        16.31503        -0.17702
C         12.20053        17.03622        -0.23846
C         13.45392        19.24036         0.14959
C         12.18487        18.53639        -0.18608
C         13.42457        20.71422         0.04966
C         12.22609        21.37955         0.12162
C         13.44814        23.50358         0.61865
C         12.20672        22.89395        -0.00541
C         13.39662        24.90689         1.00993
C         12.14559        25.66198         0.77057
C         13.44647        27.74607         0.70499
C         12.18763        27.08382         0.79545
C         13.41282        29.17318         0.32690
C         12.19303        29.95706         0.70440
C         13.41264        32.09851        -0.12848
C         12.19781        31.44397         0.53825
C         13.44519        33.57661         0.15129
C         12.15313        34.31273        -0.09480
C         13.44707        36.43426         0.45715
C         12.20023        35.75688         0.34279
C         13.45573        37.86515         0.62272
C         12.22581        38.58017         0.60507
C         15.87283         3.55717        -1.52888
C         14.72382         4.10919        -0.95070
C         16.07924         6.28960        -0.69747
C         14.82561         5.48195        -0.34159
C         16.02477         7.77116        -0.75610
C         14.81733         8.45690        -0.48245
C         16.01392        10.61802        -0.72269
C         14.81545         9.88679        -0.46890
C         16.01406        12.05364        -0.66682
C         14.80788        12.74909        -0.37278
C         15.96612        14.88066        -0.58816
C         14.76758        14.17173        -0.32172
C         15.91267        16.34676        -0.68570
C         14.66771        17.02864        -0.29439
C         16.00159        19.23697        -0.15997
C         14.73179        18.48209        -0.00728
C         15.99294        20.65368         0.00124
C         14.72432        21.40654        -0.07590
C         16.01861        23.49651         0.66644
C         14.73375        22.90273         0.26780
C         16.03068        24.87619         1.34863
C         14.70785        25.66059         1.21789
C         15.93414        27.77022         0.59060
C         14.70098        27.08795         0.80888
C         15.96634        29.18121         0.35847
C         14.70625        29.91563         0.13349
C         15.88801        32.07740         0.36615
C         14.70189        31.38697         0.20065
C         15.89200        33.52446         0.44129
C         14.63343        34.24640         0.36299
C         15.88618        36.37945         0.67787
C         14.65948        35.69900         0.48918
C         15.89921        37.81607         0.81019
C         14.68432        38.53259         0.77247
C         18.22757         3.60859        -2.31277
C         17.09831         4.25725        -1.71909
C         18.33173         6.38552        -1.77043
C         17.17582         5.63859        -1.42991
C         18.38424         7.80231        -1.54097
C         17.19650         8.49201        -1.10297
C         18.42134        10.65326        -1.27005
C         17.20641         9.92183        -1.04571
C         18.43668        12.07776        -1.12828
C         17.21652        12.78300        -0.85973
C         18.43922        14.95147        -0.89060
C         17.19310        14.21201        -0.80440
C         18.46581        16.36601        -0.73762
C         17.20190        17.12580        -0.74346
C         18.44707        19.25654        -0.31033
C         17.20562        18.55815        -0.35956
C         18.44765        20.66394        -0.04974
C         17.20291        21.36962         0.10102
C         18.49585        23.40891         0.79648
C         17.18509        22.77735         0.49423
C         18.51578        24.96574         0.97796
C         17.23741        25.68289         0.91611
C         18.44752        27.78314         0.50659
C         17.19953        27.04723         0.67134
C         18.43138        29.20351         0.40539
C         17.16661        29.91064         0.36972
C         18.34704        32.07921         0.44483
C         17.15415        31.35721         0.38633
C         18.34786        33.49987         0.64367
C         17.09642        34.21786         0.61045
C         18.33363        36.33899         0.94904
C         17.11250        35.65380         0.74578
C         18.33954        37.77291         1.06981
C         17.13130        38.48439         0.99314
C         19.37579         4.30985        -2.58929
C         20.63431         6.45514        -2.60265
C         19.45751         5.71115        -2.32976
C         20.69093         7.81017        -2.34591
C         19.57112         8.51966        -1.82641
C         20.80648        10.70464        -1.75472
C         19.61501         9.95800        -1.61403
C         20.83036        12.07799        -1.56034
C         19.65613        12.80029        -1.25066
C         20.87179        14.97575        -0.99719
C         19.66435        14.24218        -1.04966
C         20.88385        16.34626        -0.79435
C         19.68034        17.08120        -0.67415
C         20.87035        19.26716        -0.48397
C         19.67575        18.53788        -0.49711
C         20.87924        20.64359        -0.25499
C         19.69834        21.35903        -0.00782
C         20.90333        23.51467         0.31423
C         19.73216        22.77048         0.33550
C         20.91272        24.92238         0.43550
C         19.75203        25.65954         0.61856
C         20.88427        27.83858         0.28497
C         19.69736        27.10131         0.47038
C         20.85575        29.22220         0.18836
C         19.64506        29.91784         0.28041
C         20.79796        32.07551         0.88462
C         19.66589        31.41746         0.13494
C         20.74814        33.39465         1.16828
C         19.55346        34.17980         0.92163
C         20.76110        36.33502         1.25621
C         19.57001        35.61613         1.05535
C         20.75814        37.73681         1.36234
C         19.57711        38.45037         1.27467
O         13.90826        29.40465        -1.04487
O          6.22993        36.46733         1.59220
O         16.42249        16.87711        -1.97622
O          2.74478        33.18442         1.05005
O          2.70647        21.13379         2.02982
O          3.49747        36.47962         0.00292
O         12.44593        30.85445         1.85528
O          9.30340        10.35367        -0.85582
O          2.41761        13.36968         2.40325
O          7.89324        22.90721         2.20568
O         14.75857        22.40611        -1.15849
O          5.21216        13.45438         1.88427
O         10.52421        12.46329         1.71436
O          1.07394        31.90831        -0.30716
O          3.03933        26.15397        -1.65858
O          5.66959        11.97718        -1.36848
O         18.62720        24.03337         2.09653
O          2.25902         8.97838        -0.73385
O         12.17681        17.87004        -1.48582
O          3.53688        27.47398         1.57135
O         13.87087        25.33255         2.37451
O          6.51228        21.24148        -0.90079
O          4.93251        34.16920         1.63706
O         15.88773         5.68021         0.64036
O         14.13124        18.74429         1.35225
O         12.56833         4.34669         0.81624
O          5.90179        28.69126         2.19572
O          5.69044        15.54813        -1.25059
O          9.18344        36.20135         1.99889
O          7.14843        30.57614        -0.82430
O         19.92172        31.67508        -1.29384
H         19.92713        32.64848        -1.41583
O          2.33469        29.00384        -2.73159
H          2.67217        28.08072        -2.76054
O         16.23185        24.62026         2.76146
H         15.33883        24.62490         3.18199
O          2.39767        16.94355         2.70525
H          1.60076        17.37395         3.08127
O         13.19473        31.94170        -1.57680
H         13.38958        30.98974        -1.78570
O         12.22109        23.21732        -1.43733
H         13.09416        22.90267        -1.78359
O         12.00222        34.39416        -1.55865
H         12.33682        33.54044        -1.93045
O         11.47645         7.86364         2.20635
H         12.29770         7.35919         2.39364
O         10.88485        14.55876        -1.55285
H         10.09132        15.01830        -1.90366
O          4.26263        35.12467        -4.15073
H          4.26591        34.15477        -4.29687
H          1.50504         2.18946         1.50357
H         -0.68957         3.34951         1.76007
H         -0.84699         5.80012         1.52199
H         -0.94264         7.72424         1.25822
H         -1.03611        10.14076         1.16794
H         -1.09572        12.13860         0.89829
H         -1.11873        14.56127         0.88106
H         -1.08586        16.52014         0.48151
H         -1.06718        18.95044         0.40882
H         -0.80148        20.61103        -0.84442
H         -0.77588        23.01563        -1.32163
H         -0.85081        25.06009        -1.31551
H         -0.75904        27.45855        -1.73264
H         -0.40891        29.19429        -2.63099
H         -0.70982        31.51734        -2.99371
H          0.68428        32.90912        -4.12349
H          1.65286        34.84570        -5.27118
H          2.14207        37.24338        -4.71281
H          3.89755         2.27221         1.03969
H          3.46040        38.93623        -3.46867
H          6.29171         2.32522         0.47788
H          5.52560        39.23123        -2.04109
H          8.62089         2.41360        -0.25635
H          7.52582        39.51823        -0.77135
H         10.71719         2.60098        -1.35846
H          9.79893        39.68168         0.16624
H         13.47063         2.62319        -1.92434
H         12.24344        39.67907         0.64939
H         15.81321         2.52654        -1.91157
H         14.69873        39.62644         0.88785
H         18.16586         2.53311        -2.53313
H         17.14024        39.58021         1.08986
H         20.24668         3.79931        -3.02538
H         21.50859         5.93889        -3.02485
H         21.61830         8.35107        -2.57756
H         21.74757        10.19773        -2.00682
H         21.78796        12.60388        -1.67274
H         21.83399        14.45630        -1.09909
H         21.85420        16.85769        -0.74740
H         21.83260        18.76427        -0.64536
H         21.84893        21.15771        -0.24226
H         21.85658        23.03112         0.06269
H         21.86804        25.43167         0.25258
H         21.85221        27.32518         0.22776
H         21.79464        29.76846         0.02736
H         21.70993        31.50295         1.10523
H         21.61357        33.87771         1.64336
H         21.72198        35.80764         1.32289
H         21.70919        38.26520         1.51710
H         19.57880        39.54606         1.36382
