         430
 CSIRO Nanostructure Databank - Neutral Graphene Oxide Data Set
C         27.96702        27.62762        -1.35018
C         27.94497        29.02593        -0.96342
C         26.71778        29.70300        -0.75392
C         27.90500        31.74828        -0.13415
C         26.70290        31.03125        -0.37338
C         27.90491        33.15414         0.20931
C         26.69576        33.88597         0.33578
C         27.91792        35.93071         0.84474
C         26.69890        35.23353         0.62894
C         27.93071        37.36282         1.05414
C         26.73932        38.10328         1.39186
C         27.83058        40.18583         0.63471
C         26.70416        39.46040         1.32534
C         27.84528        41.69047         0.79293
C         26.65096        42.41983         0.64994
C         27.86863        44.51836         0.70710
C         26.65436        43.81467         0.68201
C         27.92121        45.97233         0.81310
C         30.42500        27.61402        -1.55608
C         29.11470        26.94025        -1.57447
C         30.41922        29.05277        -1.07488
C         29.14874        29.71181        -0.71867
C         30.38144        31.76088        -0.00552
C         29.14706        31.06193        -0.26347
C         30.39113        33.11787         0.31225
C         29.13950        33.83818         0.42188
C         30.39885        35.89295         1.22187
C         29.13366        35.21501         0.75521
C         30.39947        37.38040         0.96265
C         29.16055        38.07257         0.94750
C         30.34729        40.20986         0.98118
C         29.15624        39.50894         0.90901
C         30.33019        41.67830         1.30330
C         29.06422        42.38188         0.88307
C         30.35082        44.49399         0.67007
C         29.08869        43.78837         0.74822
C         30.28442        45.89746         0.11429
C         29.08103        46.64111         0.64543
C         32.96425        24.80687        -1.83576
C         31.75601        25.49659        -1.75945
C         32.93745        27.57553        -1.25983
C         31.71022        26.86961        -1.48745
C         32.94685        28.93438        -0.82565
C         31.66842        29.57440        -0.46434
C         32.93001        31.72397         0.08108
C         31.64910        30.99969         0.02481
C         32.88732        33.09911         0.35916
C         31.65870        33.81104         0.51723
C         32.87593        35.95243         0.79371
C         31.66726        35.19976         0.79839
C         32.86142        37.38508         0.84853
C         31.60625        38.09292         0.90636
C         32.82342        40.26393         0.91199
C         31.60482        39.52861         0.94347
C         32.81478        41.70711         0.90488
C         31.60214        42.40787         0.95998
C         32.83180        44.61729         0.99415
C         31.55733        43.83015         0.81767
C         32.80812        45.99584         0.38042
C         31.59434        46.64980         0.14619
C         32.79227        48.69515        -0.38899
C         31.60431        47.99928        -0.26497
C         35.48925        23.31712        -1.79104
C         35.44370        24.75696        -1.74366
C         34.20265        25.46881        -1.69013
C         35.39723        27.60663        -1.28557
C         34.18889        26.88979        -1.42499
C         35.38858        28.95309        -0.86277
C         34.15082        29.62738        -0.58278
C         35.40333        31.70207        -0.05226
C         34.15562        31.01022        -0.14318
C         35.41214        33.13170         0.23389
C         34.16191        33.78145         0.77814
C         35.29564        36.00685         0.51772
C         34.12547        35.27977         0.62858
C         35.30577        37.42734         0.64806
C         34.06773        38.12163         0.79066
C         35.29381        40.26422         0.70456
C         34.06996        39.56153         0.81129
C         35.30009        41.70809         0.65404
C         34.06629        42.43079         0.74906
C         35.29388        44.54454         0.48963
C         34.08060        43.83531         0.67770
C         35.29790        45.97078         0.29533
C         34.04199        46.67940         0.19103
C         35.28932        48.75395        -0.35010
C         34.03696        48.05358        -0.17826
C         35.31263        50.13181        -0.68771
C         37.95316        23.32241        -2.22501
C         36.64201        22.63074        -1.98589
C         37.89120        24.77599        -1.80098
C         36.69407        25.46043        -1.70397
C         37.93037        27.60577        -1.17440
C         36.68709        26.97887        -1.77029
C         37.86087        28.93360        -0.71261
C         36.63309        29.63835        -0.63709
C         37.88720        31.73509        -0.21727
C         36.62359        31.02537        -0.29427
C         37.85066        33.20677        -0.13966
C         36.56122        33.86149         0.12909
C         37.78838        36.03013         0.64306
C         36.56902        35.36418         0.05770
C         37.78952        37.40615         0.76885
C         36.53828        38.13099         0.68239
C         37.78587        40.24028         0.73973
C         36.54606        39.55090         0.70626
C         37.80291        41.66864         0.28207
C         36.51279        42.41029         0.52572
C         37.76826        44.53253         0.32261
C         36.52666        43.82344         0.43694
C         37.76674        45.93315         0.16081
C         36.52076        46.64980         0.09150
C         37.75806        48.75282        -0.38836
C         36.52662        48.06290        -0.19877
C         37.75225        50.13408        -0.76488
C         36.49849        50.79424        -0.90241
C         40.31309        20.45329        -1.28531
C         39.16187        21.16193        -1.56532
C         40.38348        23.25566        -1.48861
C         39.17419        22.57554        -1.68602
C         40.46039        24.73082        -1.61380
C         39.17082        25.51072        -1.73568
C         40.38381        27.48701        -0.82918
C         39.15785        26.90284        -1.25010
C         40.36206        28.95235        -0.60001
C         39.08131        29.56511        -0.09122
C         40.34641        31.75199         0.13954
C         39.09437        31.07283        -0.17072
C         40.34139        33.16743         0.48957
C         39.09716        33.93000         0.27952
C         40.28469        36.00188         1.02638
C         38.98685        35.22703         1.04342
C         40.26147        37.42306         1.08863
C         39.02618        38.12888         0.98865
C         40.25196        40.26281         1.11969
C         39.01121        39.55000         0.94468
C         40.21236        41.76201         1.30911
C         39.01736        42.44429         0.69548
C         40.26247        44.55622         0.56395
C         39.01639        43.81600         0.51998
C         40.24743        45.95454         0.22581
C         39.01473        46.63870         0.02958
C         40.23391        48.70747        -0.47796
C         39.01441        48.04046        -0.26841
C         40.27509        50.20660        -0.59401
C         38.97405        50.82494        -1.03264
C         40.18974        52.72678        -1.97483
C         39.00705        52.12850        -1.57773
C         42.77220        20.41049        -0.95054
C         41.55542        21.12209        -1.12925
C         42.83731        23.23411        -1.05744
C         41.58446        22.54475        -1.19820
C         42.84883        24.67553        -0.92095
C         41.66513        25.40737        -1.06944
C         42.74476        27.40783         0.04128
C         41.59479        26.79017        -0.73706
C         42.85409        28.90576        -0.04907
C         41.62676        29.67118        -0.26677
C         42.70298        31.63542         0.96662
C         41.52648        31.04376         0.23827
C         42.80758        33.14480         0.70028
C         41.48353        33.85165         0.83706
C         42.73684        36.00099         1.21942
C         41.49273        35.29404         1.03204
C         42.71383        37.41667         1.33197
C         41.49893        38.13768         1.23464
C         42.70379        40.35110         1.48302
C         41.44420        39.58068         1.30151
C         42.73083        41.77079         1.05823
C         41.50835        42.46774         0.96948
C         42.76385        44.64118         0.89955
C         41.47798        43.86548         0.74869
C         42.73477        45.97707         0.20274
C         41.48028        46.63313        -0.00835
C         42.68732        48.62096        -0.82517
C         41.46674        47.99594        -0.43639
C         42.66851        49.96434        -1.37676
C         41.47207        50.71356        -1.35678
C         42.59159        52.52281        -2.55438
C         41.42985        52.00211        -1.94191
C         43.98015        21.08354        -0.91976
C         45.34224        23.25248        -1.12873
C         44.03445        22.49491        -0.97513
C         45.27591        24.61733        -0.49043
C         44.08729        25.33606        -0.51075
C         45.27726        27.42302         0.12171
C         44.06769        26.72284        -0.14287
C         45.28209        28.84167         0.37571
C         44.03259        29.57471         0.33367
C         45.22327        31.67483         0.93873
C         44.01734        30.96146         0.65227
C         45.21480        33.04174         1.26365
C         43.92474        33.78040         1.52038
C         45.21701        35.94326         1.31340
C         43.98050        35.28038         1.30692
C         45.24056        37.39811         1.33121
C         43.98827        38.08688         1.82312
C         45.24385        40.28578         1.17128
C         44.00423        39.60859         1.62388
C         45.22906        41.68143         0.89608
C         43.98363        42.41776         0.86677
C         45.20867        44.49032         0.38631
C         44.01251        43.82892         0.62336
C         45.22707        46.00442         0.38084
C         43.92698        46.61539        -0.08754
C         45.13010        48.50490        -1.13369
C         43.91881        47.91999        -0.69272
C         45.08925        49.68536        -2.07573
C         43.82932        50.51189        -1.97639
C         43.76687        51.78061        -2.57268
C         47.73397        23.13700        -0.41781
C         46.58775        22.49738        -0.75608
C         47.78746        24.55889        -0.18755
C         46.48261        25.21316         0.17889
C         47.73514        27.39416         0.32220
C         46.51096        26.71525         0.13497
C         47.73392        28.80118         0.60302
C         46.48523        29.52667         0.65380
C         47.67969        31.63153         1.19113
C         46.47453        30.93861         0.91946
C         47.72282        33.02744         1.37997
C         46.45397        33.75700         1.71065
C         47.67388        35.87496         1.12294
C         46.45886        35.21913         1.32691
C         47.64870        37.33008         0.84979
C         46.41265        38.08922         1.15699
C         47.67826        40.23659         0.93190
C         46.45139        39.54996         1.09906
C         47.69345        41.63366         0.71157
C         46.46110        42.36137         0.65108
C         47.66937        44.49785         0.26309
C         46.46199        43.78611         0.40684
C         47.67765        45.87969        -0.17989
C         46.44693        46.57489        -0.29313
C         47.59032        48.48705        -1.34033
C         46.38328        47.84807        -0.91486
C         47.53389        49.87406        -1.74698
C         46.35843        50.49035        -2.00497
C         50.25872        24.64055        -0.30859
C         48.98541        25.27496        -0.08567
C         50.20753        27.39476         0.36299
C         48.98409        26.69001         0.22306
C         50.19623        28.78209         0.72088
C         48.95508        29.45255         0.86854
C         50.22371        31.60261         1.46874
C         48.92115        30.85094         1.32558
C         50.20301        33.06989         1.34450
C         48.95266        33.75717         1.34599
C         50.17887        35.89591         1.10582
C         48.93041        35.18502         1.20138
C         50.20736        37.31128         0.99402
C         48.95191        38.06879         0.82024
C         50.23323        40.21629         0.85211
C         48.96324        39.51496         1.27260
C         50.19300        41.64205         0.59902
C         48.95306        42.32045         0.56409
C         50.25026        44.49706         0.11211
C         48.94316        43.78768         0.46753
C         50.25313        45.96150        -0.31204
C         48.87353        46.50518        -0.63537
C         50.01440        48.32914        -1.83241
C         48.82620        47.79388        -1.22782
C         51.43291        25.32118        -0.17756
C         52.68054        27.42271         0.27051
C         51.46561        26.71564         0.17015
C         52.67082        28.83348         0.54681
C         51.44152        29.50087         0.84663
C         52.68476        31.59714         1.23499
C         51.46941        30.88517         1.14923
C         52.68139        33.04359         1.34682
C         51.42687        33.75947         1.26896
C         52.65323        35.90448         1.12830
C         51.42136        35.18920         1.16959
C         52.64356        37.31368         1.04629
C         51.42334        38.02389         0.98350
C         52.66795        40.13095         0.50790
C         51.41915        39.48613         0.81911
C         52.73281        41.63043         0.40962
C         51.40484        42.31686         0.22948
C         52.51752        44.18922        -0.94286
C         51.41029        43.64953        -0.19976
C         52.43563        45.48089        -1.54730
C         51.28891        46.30314        -1.36043
C         51.15774        47.56762        -1.97445
C         55.13557        27.43646         0.15876
C         53.97016        26.75486         0.18874
C         55.15187        28.93593         0.04170
C         53.89089        29.55568         0.60369
C         55.18004        31.51780         1.41993
C         53.90580        30.88298         1.04969
C         55.16870        33.04834         1.58089
C         53.89079        33.76117         1.36302
C         55.14360        35.86079         1.02943
C         53.90921        35.17984         1.19777
C         55.15913        37.27057         0.77801
C         53.93605        38.07896         1.13464
C         55.05934        40.02740        -0.06337
C         53.85935        39.42580         0.45384
C         54.96472        41.33566        -0.71157
C         53.79912        42.10225        -0.54739
C         54.74729        43.85594        -1.97722
C         53.68268        43.37697        -1.15858
C         54.63080        45.14122        -2.58844
C         53.52238        45.91678        -2.38066
C         56.41229        29.55579         0.58255
C         56.42597        30.76142         1.16753
C         56.41284        33.79966         1.39681
C         56.38147        35.11998         1.09178
C         56.29321        37.94601         0.34242
C         56.24878        39.29973        -0.05325
C         56.00884        41.82754        -1.54041
C         55.90094        43.05691        -2.15982
O         48.26693        37.77252        -0.43118
O         49.53847        31.06017         2.65636
O         49.82406        44.38916         1.51131
O         38.69321        33.94181        -1.12808
O         55.15068        32.14767         2.74008
O         30.53155        28.75504        -2.49831
O         31.56035        29.84828         0.97089
O         43.37453        40.24390         2.80239
O         41.05339        29.63394        -1.68129
O         40.03270        25.26617        -2.93033
O         45.47121        23.50267        -2.58097
H         44.64051        23.93215        -2.87900
O         42.86345        44.97011         2.34515
H         42.91474        44.11801         2.83117
O         42.36247        27.15975         1.46118
H         43.09187        27.49533         2.02603
O         45.33166        46.38812         1.79885
H         44.51824        46.03812         2.24204
O         45.05480        49.08884        -3.43233
H         45.88308        48.57339        -3.53809
O         50.67885        46.72318         0.86965
H         50.24767        46.28528         1.64119
O         39.04552        29.21768         1.33329
H         38.24372        29.62443         1.72392
O         30.02525        45.70799        -1.32567
H         29.17940        45.21652        -1.40588
O         32.89297        44.85179         2.45600
H         33.73895        45.31364         2.64042
O         46.30620        24.89073         1.63104
H         47.06554        25.29407         2.10503
O         40.03754        41.94212         2.76942
H         40.03018        42.90780         2.94406
O         54.10028        38.40111         2.56750
H         54.76465        39.11973         2.63308
O         46.38154        33.77102         3.22046
H         46.85701        32.97284         3.54066
O         30.29274        41.71667         2.78550
H         30.49297        42.63834         3.05810
O         37.91007        41.56607        -1.20096
H         37.10728        41.09758        -1.51651
O         43.20964        33.32124        -0.68367
H         42.49076        32.98156        -1.25837
O         40.46898        50.69156         0.80358
H         40.52379        51.67039         0.75801
O         38.15726        23.35387        -3.68291
H         38.93504        23.94705        -3.83269
O         36.62997        35.67085        -1.38500
H         37.44223        35.21760        -1.72312
O         53.18687        42.06276         1.75477
H         53.09907        43.03966         1.79174
O         48.99857        39.43909         2.73664
H         49.12630        40.34714         3.08409
O         36.73088        27.29203        -3.20590
H         37.55822        26.90710        -3.56747
O         38.75697        34.81365         2.43757
H         38.77663        35.61895         2.99698
O         27.59295        39.98797        -0.81009
H         27.56245        39.01964        -0.96679
O         43.99751        37.83508         3.26045
H         43.55487        38.61227         3.67907
O         42.43731        31.36046         2.37121
H         42.87106        32.07526         2.90675
O         55.14006        29.23904        -1.40046
H         54.36079        28.78430        -1.78509
O         34.23040        33.56195         2.23886
H         34.15125        32.59623         2.39366
O         30.37590        35.76951         2.69917
H         30.48572        34.81848         2.91373
O         43.64172        33.62940         2.95176
H         44.49560        33.83170         3.41624
H         27.00141        27.10283        -1.40533
H         25.77219        29.17005        -0.92874
H         25.73280        31.53267        -0.25961
H         25.73098        33.38471         0.18337
H         25.74407        35.77372         0.68887
H         25.86615        37.55313         1.77336
H         25.80103        40.00858         1.63011
H         25.69697        41.88480         0.54258
H         25.70545        44.36893         0.64584
H         26.99789        46.50424         1.08882
H         29.06801        25.85921        -1.76864
H         29.11680        47.73395         0.76316
H         32.93487        23.73219        -2.05744
H         30.82404        24.94208        -1.93481
H         32.75346        49.74913        -0.69247
H         30.65581        48.50552        -0.49115
H         34.55506        22.74957        -1.67442
H         34.37476        50.69231        -0.79010
H         36.59514        21.53597        -2.06593
H         36.46420        51.85987        -1.16318
H         40.28222        19.35617        -1.21976
H         38.22766        20.60579        -1.71747
H         40.17491        53.73242        -2.41811
H         38.06958        52.67554        -1.74988
H         42.74894        19.31313        -0.88861
H         42.55430        53.51225        -3.03205
H         44.90744        20.50064        -0.83908
H         44.64830        52.19497        -3.08058
H         48.65216        22.54192        -0.29899
H         46.61813        21.41160        -0.92280
H         48.46547        50.45667        -1.77753
H         46.34828        51.55723        -2.26727
H         50.28856        23.57973        -0.59036
H         49.97498        49.31222        -2.31947
H         52.37467        24.78748        -0.36167
H         51.96686        47.96713        -2.60053
H         56.09308        26.89597         0.11587
H         53.99784        25.65610         0.20176
H         55.45148        45.50582        -3.22291
H         53.47628        46.90323        -2.85913
H         57.35223        29.00139         0.43787
H         57.36708        31.17833         1.55494
H         57.37256        33.28230         1.52903
H         57.33145        35.65648         0.96701
H         57.24096        37.40917         0.19783
H         57.17351        39.75121        -0.43686
H         56.91317        41.22578        -1.70190
H         56.71565        43.42885        -2.79756
