         420
 CSIRO Nanostructure Databank - Neutral Graphene Oxide Data Set
C         27.89685        27.33466         0.67087
C         27.92393        28.75840         0.43251
C         26.76626        29.44166         0.03042
C         27.95656        31.57270         0.03679
C         26.77641        30.82372        -0.13827
C         27.96888        33.02393        -0.06333
C         26.77438        33.75680        -0.24560
C         27.96738        35.87892        -0.11482
C         26.77139        35.14023        -0.26680
C         27.97412        37.32351        -0.05904
C         26.74421        38.06986        -0.19447
C         27.92396        40.21585        -0.07874
C         26.73158        39.43221        -0.25211
C         27.91814        41.59694        -0.13290
C         26.70173        42.35823        -0.27489
C         27.95451        44.45409        -0.42261
C         26.71242        43.71816        -0.32505
C         27.93101        45.83323        -0.70701
C         30.21706        27.40633         1.48217
C         28.97334        26.68468         1.17507
C         30.32056        28.81336         1.06098
C         29.14203        29.48294         0.61105
C         30.41145        31.59051         0.41668
C         29.16545        30.88788         0.35903
C         30.43499        33.02850         0.22137
C         29.19181        33.73598         0.06334
C         30.42454        35.88821         0.11838
C         29.19436        35.16572         0.02599
C         30.42314        37.31558         0.10099
C         29.17988        38.01709         0.08342
C         30.45100        40.20239        -0.03309
C         29.17806        39.49930         0.37858
C         30.44697        41.58392        -0.16148
C         29.19281        42.35476         0.18881
C         30.39131        44.44153        -0.63664
C         29.18732        43.77122        -0.33449
C         30.34701        45.83135        -0.92771
C         29.11978        46.51511        -0.92559
C         32.71175        24.49748         1.11268
C         31.58519        25.17292         1.41471
C         32.79485        27.39281         1.45054
C         31.55802        26.62966         1.66999
C         32.80701        28.76946         1.26658
C         31.55855        29.49212         1.06707
C         32.88805        31.53859         0.53848
C         31.58890        30.87230         0.69853
C         32.92002        33.03129         0.28983
C         31.63891        33.74906         0.25760
C         32.89133        35.89187         0.23252
C         31.65818        35.17860         0.21592
C         32.88895        37.31174         0.10776
C         31.66043        38.02651         0.05452
C         32.89232        40.14179        -0.32039
C         31.67303        39.46018        -0.11141
C         32.89249        41.56755        -0.49316
C         31.66334        42.29206        -0.41967
C         32.87770        44.36442        -0.86605
C         31.65871        43.70600        -0.63870
C         32.90222        45.78201        -1.26841
C         31.58792        46.55577        -1.29363
C         32.90091        48.63313        -1.16222
C         31.69531        48.00455        -1.11103
C         35.24628        23.19117         0.10647
C         35.26638        24.48815         0.63354
C         34.04443        25.13309         1.21152
C         35.29534        27.36168         0.98031
C         34.05865        26.62851         1.44645
C         35.33868        28.80817         1.41302
C         34.07546        29.51446         1.27613
C         35.29575        31.68909         1.32925
C         34.09124        30.88387         1.07970
C         35.36709        33.10360         0.86933
C         34.16309        33.78181         0.54006
C         35.37263        35.89691         0.35456
C         34.14511        35.18933         0.38206
C         35.36603        37.31144         0.10128
C         34.13256        38.02106         0.00781
C         35.37652        40.09096        -0.45071
C         34.14554        39.41935        -0.26751
C         35.38405        41.50383        -0.97072
C         34.11596        42.26679        -0.67445
C         35.37702        44.39627        -0.90617
C         34.11890        43.66427        -0.80372
C         35.38565        45.78130        -1.04452
C         34.16658        46.53038        -1.16791
C         35.41462        48.67520        -1.14741
C         34.15658        47.92837        -1.22773
C         35.42939        50.09351        -1.15537
C         37.67024        23.22473        -0.22024
C         36.42973        22.58805        -0.33162
C         37.71645        24.55155         0.30015
C         36.50420        25.16757         0.69192
C         37.83322        27.25558         1.40229
C         36.53241        26.53851         1.25676
C         37.82117        28.73619         1.63992
C         36.53727        29.47082         1.53571
C         37.87873        31.64238         1.39077
C         36.59985        30.94172         1.63601
C         37.86323        33.15892         1.41138
C         36.58799        33.78781         0.87502
C         37.83199        35.83637         0.27737
C         36.61282        35.18040         0.52000
C         37.82109        37.22203        -0.17160
C         36.58359        38.00442        -0.09192
C         37.87051        40.12719        -0.34982
C         36.60408        39.39913        -0.33670
C         37.85776        41.55832        -0.39920
C         36.63806        42.27508        -0.63041
C         37.86004        44.40984        -0.58058
C         36.62760        43.66715        -0.73023
C         37.88520        45.81127        -0.73400
C         36.68342        46.50512        -1.31138
C         37.85437        48.69912        -0.84070
C         36.63427        47.98622        -1.02777
C         37.84841        50.12701        -0.89715
C         36.61758        50.79519        -1.06898
C         40.10592        20.37778        -1.02512
C         38.96442        21.05577        -0.81206
C         40.18940        23.15732        -0.25887
C         38.90664        22.57719        -0.82600
C         40.22945        24.59201         0.13789
C         38.96417        25.31099         0.38880
C         40.29536        27.36350         0.84023
C         39.04417        26.60780         0.85885
C         40.33179        28.70396         1.18064
C         39.12038        29.47740         1.58384
C         40.32258        31.66382         1.26730
C         39.08965        30.95850         1.38240
C         40.33047        33.05924         0.92807
C         39.12050        33.74422         0.81551
C         40.36919        35.87391         0.33085
C         39.10819        35.05947         0.08977
C         40.37604        37.25940         0.15987
C         39.14582        37.97723        -0.24485
C         40.31673        40.15743         0.00957
C         39.09575        39.44760        -0.17413
C         40.30500        41.57792        -0.01617
C         39.07585        42.27949        -0.22590
C         40.28199        44.44419        -0.14441
C         39.07053        43.70755        -0.30207
C         40.26637        45.85009        -0.18106
C         39.07250        46.54790        -0.49737
C         40.28349        48.72906        -0.36413
C         39.07418        47.99138        -0.58712
C         40.26580        50.15194        -0.43511
C         39.09361        50.85847        -0.76835
C         40.42555        52.89200        -1.13904
C         39.18361        52.25135        -1.05504
C         42.54766        20.57357        -1.93103
C         41.43055        21.05180        -1.09844
C         42.56240        23.35412        -1.22492
C         41.46457        22.49519        -0.70545
C         42.59712        24.80666        -0.77269
C         41.47340        25.37440        -0.00499
C         42.76849        27.43282         0.28877
C         41.51736        26.69769         0.38509
C         42.84007        28.76373         0.76174
C         41.62246        29.39710         1.30721
C         42.83817        31.67060         1.13426
C         41.59396        30.96253         1.40276
C         42.84236        33.06343         0.94240
C         41.59552        33.76403         0.77830
C         42.82702        35.90656         0.59735
C         41.59458        35.17228         0.57666
C         42.82102        37.32529         0.45981
C         41.58439        38.01698         0.27610
C         42.78635        40.16330         0.20576
C         41.56291        39.44239         0.16891
C         42.77590        41.59657         0.13075
C         41.53854        42.30673         0.07549
C         42.76007        44.43104        -0.03406
C         41.53402        43.72769         0.01135
C         42.76125        45.90359        -0.40289
C         41.53059        46.59263         0.18397
C         42.75756        48.78065        -0.05570
C         41.51557        48.06091        -0.13993
C         42.75404        50.15981         0.02434
C         41.46742        50.93832         0.00764
C         42.89351        52.81877        -0.93183
C         41.59534        52.25063        -0.73375
C         43.68788        21.31532        -2.06339
C         44.99454        23.44581        -1.69300
C         43.80736        22.68773        -1.63050
C         45.04827        24.81951        -1.21955
C         43.89945        25.47524        -0.73289
C         45.19688        27.50395        -0.19280
C         43.95470        26.79825        -0.19329
C         45.24926        28.85061         0.28234
C         44.06110        29.46861         0.75531
C         45.37702        31.64345         1.07199
C         44.08217        30.88257         1.20500
C         45.33300        33.11314         0.96179
C         44.08941        33.79406         0.92589
C         45.27853        35.96139         0.83680
C         44.06869        35.22754         0.78877
C         45.29228        37.35849         0.64710
C         44.05180        38.05188         0.46590
C         45.26797        40.18420         0.23378
C         44.03477        39.46833         0.31129
C         45.25949        41.59846         0.03109
C         44.00108        42.31241         0.05314
C         45.20613        44.48597        -0.29861
C         43.96668        43.72739        -0.02702
C         45.30036        45.90475         0.21204
C         44.02946        46.66682        -0.05942
C         45.29269        48.76529         0.12064
C         44.02724        48.03155         0.00795
C         45.27691        50.16735         0.26853
C         43.99144        50.96025         0.34534
C         44.03251        52.21313        -0.49956
C         47.39874        23.53510        -2.14293
C         46.21394        22.85267        -2.15538
C         47.49064        24.87595        -1.65263
C         46.30910        25.51693        -1.19063
C         47.61759        27.56092        -0.69958
C         46.37424        26.85978        -0.69378
C         47.67444        28.92047        -0.25440
C         46.50015        29.57367         0.22017
C         47.76755        31.68037         0.45889
C         46.56759        30.94792         0.55987
C         47.78785        33.10239         0.75358
C         46.56231        33.80329         0.93904
C         47.81572        36.01376         1.14591
C         46.50636        35.25821         1.36150
C         47.79530        37.42355         0.69569
C         46.53852        38.08607         0.58038
C         47.74584        40.19298         0.19452
C         46.51341        39.48633         0.32895
C         47.72044        41.59042        -0.07591
C         46.47824        42.27908        -0.16796
C         47.75058        44.47620        -0.42656
C         46.47734        43.73009        -0.40864
C         47.77390        45.92983        -0.36171
C         46.58587        46.63524        -0.15053
C         47.75127        48.83069         0.08471
C         46.54693        48.07920         0.00952
C         47.70171        50.20798         0.33993
C         46.48156        50.86915         0.42362
C         49.95694        24.94829        -2.05074
C         48.74829        25.56874        -1.62536
C         50.05576        27.61625        -1.16192
C         48.80534        26.91537        -1.16421
C         50.10414        28.97320        -0.72091
C         48.91379        29.63178        -0.28520
C         50.22677        31.68356         0.16541
C         48.96667        31.00367         0.09702
C         50.25286        33.09045         0.51699
C         49.03487        33.77866         0.74722
C         50.30269        35.96659         0.52395
C         49.09028        35.24120         0.94952
C         50.27747        37.36939         0.37097
C         49.01040        38.08844         0.42268
C         50.21106        40.24884         0.08678
C         48.99829        39.50897         0.21094
C         50.19806        41.64162        -0.08405
C         48.94464        42.28970        -0.30430
C         50.61557        44.75033        -0.26230
C         48.84113        43.66439        -0.72139
C         50.31445        45.98255         0.17732
C         49.08507        46.67882        -0.33271
C         50.27378        48.76541         0.54931
C         49.06180        48.15547        -0.07654
C         51.15752        25.62079        -2.03660
C         52.49498        27.69818        -1.62606
C         51.24700        26.97200        -1.60315
C         52.53087        29.03360        -1.17722
C         51.34758        29.67082        -0.71212
C         52.71297        31.58703         0.13361
C         51.40048        31.00367        -0.19623
C         52.73626        33.06132         0.64226
C         51.48467        33.80300         0.55481
C         52.75243        35.95739         0.47732
C         51.51868        35.23593         0.48336
C         52.71982        37.37638         0.38235
C         51.51214        38.06769         0.19914
C         52.74743        40.27650         0.31132
C         51.52007        39.53768        -0.17959
C         52.73479        41.63567         0.40709
C         51.54062        42.39708        -0.17187
C         52.67495        44.50180         0.94543
C         51.42274        43.78132         0.53434
C         52.57051        45.86077         1.27524
C         51.18853        46.55266         1.28636
C         51.23602        48.05790         1.15720
C         54.93050        27.72347        -1.99963
C         53.71261        27.07673        -2.07539
C         55.03195        29.05790        -1.54075
C         53.77099        29.86885        -1.40275
C         55.17247        31.65780        -0.34862
C         53.92678        31.03998        -0.46453
C         55.31262        33.03713         0.20711
C         54.03559        33.79801         0.62956
C         55.23878        35.94837         0.38203
C         54.01686        35.26293         0.51307
C         55.27014        37.38470         0.51174
C         53.97436        38.12551         0.78010
C         55.26142        40.26569         0.71048
C         54.05026        39.52745         0.17998
C         55.17887        41.69640         0.93736
C         53.94891        42.37364         0.77256
C         55.06025        44.48923         1.46576
C         53.89516        43.78270         1.04283
C         54.95579        45.86798         1.78058
C         53.74390        46.53051         1.70488
C         56.26701        29.69056        -1.33733
C         56.33507        30.98648        -0.83201
C         56.42195        33.88268        -0.24930
C         56.41561        35.22672        -0.03732
C         56.43310        38.11743         0.59377
C         56.41870        39.53207         0.82514
C         56.33581        42.42967         1.34278
C         56.28762        43.77980         1.59408
O         32.18914        46.04768        -2.53361
O         52.76026        31.93849         1.55675
O         49.93438        44.23182        -1.36377
O         54.97692        33.26101         1.60842
O         42.13195        24.40961        -2.13823
O         45.69639        44.19443        -1.63546
O         41.75138        30.07675         2.57386
O         37.17577        26.58977         2.54992
O         41.91499        21.48844         0.24132
O         30.76415        27.08742         2.80069
O         51.86946        42.45426        -1.53702
O         49.29591        47.62469        -1.43304
O         44.92122        31.14376         2.38490
O         35.79767        31.54009         2.71446
O         38.55323        29.07549         2.87599
O         33.09133        32.06678        -0.83138
O         40.26072        23.46137         1.14957
O         34.27096        25.71408         2.55049
O         38.54780        37.42464        -1.47365
O         48.69725        35.75572         2.29806
O         53.86291        38.28418         2.22720
H         53.88309        37.39116         2.63141
O         35.22747        27.40975        -0.48468
H         34.50893        28.02839        -0.73776
O         41.18835        51.31232         1.41504
H         42.04075        51.67500         1.76931
O         41.67781        46.50415         1.63871
H         40.89363        46.92850         2.04626
O         36.86226        46.41472        -2.78033
H         36.09332        46.86356        -3.19332
O         42.63172        45.95678        -1.84856
H         43.40213        45.49376        -2.24254
O         35.40255        41.35623        -2.44068
H         35.45262        42.25787        -2.82492
O         29.21348        42.47044         1.65414
H         29.23618        41.54449         2.00509
O         50.58511        46.24666         2.57296
H         50.47026        45.26421         2.59597
O         51.62940        39.62128        -1.65722
H         51.67748        40.60812        -1.85503
O         50.65820        43.54385         1.77672
H         51.21432        42.98039         2.35747
O         38.91827        22.97371        -2.23270
H         38.09070        22.65253        -2.64797
O         45.35706        45.73202         1.67345
H         45.28384        46.61977         2.08354
O         54.28394        39.38420        -1.24993
H         53.39913        39.38179        -1.70148
O         53.55750        30.48228        -2.75011
H         53.56396        29.74583        -3.39924
O         46.27497        35.21575         2.80517
H         47.16566        35.15267         3.22561
O         43.86805        51.41737         1.74996
H         44.02267        50.63761         2.32487
O         29.15292        39.61066         1.86078
H         28.35330        39.13365         2.17162
O         37.86712        33.52838         2.84746
H         37.17938        32.96488         3.27647
O         39.13718        34.72832        -1.35497
H         39.01998        35.59126        -1.82690
H         26.95994        26.79114         0.48000
H         25.83410        28.87910        -0.12182
H         25.83979        31.32261        -0.41945
H         25.81633        33.23198        -0.35452
H         25.81094        35.65548        -0.39479
H         25.79660        37.53245        -0.32512
H         25.77813        39.93945        -0.45191
H         25.73719        41.83344        -0.31152
H         25.76821        44.27763        -0.39478
H         26.96861        46.36039        -0.76885
H         28.90161        25.61902         1.43113
H         29.08849        47.58859        -1.15543
H         32.64866        23.42611         0.87179
H         30.62898        24.63140         1.43219
H         32.91241        49.72455        -1.04617
H         30.79239        48.59205        -0.89386
H         34.30619        22.62728         0.03867
H         34.49709        50.66125        -1.26496
H         36.36957        21.57635        -0.75726
H         36.58569        51.89208        -1.10570
H         40.08587        19.27779        -1.08376
H         38.02418        20.49058        -0.72108
H         40.48215        53.90660        -1.56172
H         38.28654        52.80723        -1.35814
H         42.48776        19.57122        -2.37935
H         42.96073        53.76492        -1.49202
H         44.53470        20.86310        -2.59937
H         45.00781        52.66784        -0.72427
H         48.29706        23.02701        -2.51606
H         46.20292        21.82173        -2.53264
H         48.62898        50.78643         0.44115
H         46.46369        51.95246         0.60378
H         49.94937        23.90711        -2.39773
H         50.37415        49.86143         0.50492
H         52.05677        25.08893        -2.37339
H         52.07551        48.60118         1.61647
H         55.85110        27.18059        -2.26175
H         53.69450        26.03783        -2.42829
H         55.85493        46.40768         2.11178
H         53.70273        47.59142         1.98691
H         57.19539        29.14223        -1.55573
H         57.32189        31.44816        -0.69666
H         57.27827        33.42533        -0.76427
H         57.29728        35.80986        -0.33762
H         57.41184        37.61793         0.54527
H         57.37407        40.00999         1.08430
H         57.29330        41.90411         1.45804
H         57.19203        44.32016         1.90856
