         651
 CSIRO Nanostructure Databank - Neutral Graphene Oxide Data Set
C          5.76337        31.70771         0.06156
C          5.74064        33.05828         0.24554
C          8.34243        27.50625        -0.65148
C          8.27174        28.83000        -0.32199
C          7.02835        29.58877        -0.23137
C          8.26497        31.75402        -0.18932
C          6.99270        30.95098        -0.06126
C          8.18968        33.15951         0.34930
C          6.95593        33.85016         0.43519
C          8.11640        36.01495         1.12641
C          6.92152        35.23228         0.64706
C          8.16900        37.46122         0.70531
C         10.85562        23.13712        -0.51416
C         10.82295        24.59559        -0.34889
C          9.63772        25.28103        -0.45796
C         10.90586        27.47996        -0.34253
C          9.62337        26.74639        -0.64358
C         10.87768        28.99193        -0.22268
C          9.50139        29.52606         0.15052
C         10.76294        31.70288         0.48223
C          9.46565        30.99923         0.35960
C         10.76071        33.16670         0.42999
C          9.42827        33.92364         0.41298
C         10.61000        36.03794         0.93310
C          9.42121        35.33267         0.81794
C         10.63330        37.46448         0.88819
C          9.37108        38.15832         0.63606
C         10.57974        40.30518         0.30470
C          9.38480        39.57441         0.39935
C         10.60859        41.70905         0.22608
C         13.65424        19.38809        -1.77986
C         13.41833        20.60867        -0.93340
C         12.13607        21.03795        -0.71321
C         13.67860        23.55137        -0.94862
C         11.78625        22.26022         0.01133
C         13.32296        24.71816        -0.10460
C         12.07651        25.31648        -0.06483
C         13.10264        27.40673         0.84663
C         12.04180        26.73868         0.25201
C         13.07986        28.84749         1.01347
C         11.96932        29.56851         0.64302
C         13.17330        31.71774         1.00063
C         11.92388        31.01132         0.77665
C         13.14422        33.16517         0.96496
C         11.97744        33.87189         0.85796
C         13.14426        36.07966         1.33704
C         11.84002        35.28534         1.38224
C         13.12753        37.48379         0.86097
C         11.88278        38.14501         0.76997
C         13.12858        40.08057        -0.36948
C         11.82328        39.49131         0.15048
C         13.22551        41.42526        -1.01729
C         11.80380        42.50286         0.47242
C         13.36363        44.43586        -0.11259
C         12.05830        43.69796        -0.19915
C         13.34835        45.91044        -0.41883
C         16.21036        15.10377        -2.32116
C         15.61720        16.20342        -1.66930
C         14.93718        17.31179        -2.07782
C         15.82773        19.05431        -0.49297
C         14.56501        18.38007        -1.07145
C         15.83189        20.46908        -0.26408
C         14.65300        21.25714        -0.50819
C         15.86610        23.29617         0.16328
C         14.74916        22.66477        -0.38869
C         15.78672        24.80086         0.31110
C         14.39751        25.16636         0.86231
C         15.54510        27.35453         1.72170
C         14.29452        26.63463         1.30074
C         15.48515        28.83914         1.96639
C         14.14557        29.58057         1.81719
C         15.59467        31.72972         1.51357
C         14.32559        31.02654         1.34907
C         15.64492        33.13526         1.34008
C         14.44691        33.88578         0.85271
C         15.70819        36.00673         1.03045
C         14.42485        35.32382         1.29862
C         15.66770        37.32894         0.33640
C         14.36617        38.11329         0.49360
C         15.64873        40.19425         0.06417
C         14.39281        39.41231         0.00514
C         15.69340        41.62123        -0.39920
C         14.44727        42.23909        -1.00822
C         15.79188        44.45675        -0.95233
C         14.47501        43.76442        -0.93619
C         15.77794        45.82435        -0.90837
C         14.53123        46.57135        -0.65987
C         15.71126        48.78904        -0.60567
C         14.56513        48.01778        -0.65056
C         15.58325        50.23045        -0.68211
C         18.73771        10.98421        -2.76952
C         18.62750        12.27311        -2.17324
C         17.53414        13.10021        -2.44949
C         18.38508        14.85533        -0.96771
C         17.36061        14.38016        -1.85099
C         18.31947        16.08274        -0.06013
C         17.07599        16.90878        -0.17670
C         18.22930        18.99846         0.22252
C         17.02167        18.31633        -0.21991
C         18.16627        20.37500         0.57510
C         16.97577        21.11810         0.30254
C         18.14521        23.17370         1.11264
C         17.00302        22.53416         0.58303
C         18.20558        24.64741         1.05212
C         16.93280        25.40485         1.08939
C         18.12103        27.44229         1.85315
C         16.88632        26.69371         1.54327
C         18.05396        28.82607         1.97861
C         16.77769        29.57820         2.01479
C         18.04264        31.74221         1.84953
C         16.80132        31.04127         1.78785
C         18.04115        33.16359         1.70903
C         16.84965        33.86234         1.48211
C         18.14747        36.02204         1.17006
C         16.86841        35.31872         1.24860
C         18.14529        37.46165         0.84948
C         16.93866        38.12208         0.52039
C         18.16023        40.22310         0.17080
C         16.93859        39.50358         0.27205
C         18.17735        41.59871        -0.27668
C         17.00808        42.28025        -0.56326
C         18.30653        44.34585        -1.29913
C         16.99513        43.57726        -1.32837
C         18.29882        45.85467        -1.27788
C         17.00706        46.62000        -1.17114
C         18.37378        48.67897        -0.53672
C         17.02971        48.09579        -0.84741
C         18.53717        49.93758         0.06676
C         16.53906        51.12567        -0.21487
C         17.85329        53.23941        -0.10631
C         16.69929        52.50986        -0.49307
C         18.25847        54.50413        -0.53720
C         21.14112         6.72590        -3.40097
C         21.12888         8.04698        -2.92344
C         19.99418         8.91310        -3.17338
C         20.88296        10.56394        -1.52092
C         19.84401        10.14769        -2.54420
C         20.89279        12.05254        -1.22327
C         19.70818        12.80867        -1.37781
C         20.77192        14.71093        -0.20052
C         19.60876        14.13111        -0.84255
C         20.77410        16.11228         0.20921
C         19.58423        16.91956        -0.27141
C         20.49176        18.83192         1.10276
C         19.44270        18.27536         0.36950
C         20.21370        20.06385         1.74164
C         19.23519        20.95516         1.32009
C         20.62963        23.14827         1.80391
C         19.24571        22.40422         1.82577
C         20.65892        24.54300         1.75306
C         19.45491        25.35764         1.46242
C         20.63179        27.45236         2.17536
C         19.40165        26.76728         1.88683
C         20.52563        28.86201         2.45526
C         19.21019        29.59045         2.53664
C         20.51612        31.74688         2.02920
C         19.27132        31.03858         2.07177
C         20.53733        33.14355         1.84961
C         19.27576        33.94992         2.04617
C         20.61813        36.06336         1.19796
C         19.30708        35.34714         1.43383
C         20.55250        37.57733         1.57397
C         19.34170        38.21857         0.93149
C         20.65253        40.28609         0.40727
C         19.38367        39.55991         0.49651
C         20.71224        41.57077        -0.11755
C         19.49229        42.16948        -0.77583
C         20.74946        44.36774        -0.85954
C         19.53495        43.67490        -0.85486
C         20.77317        45.79353        -1.07213
C         19.57814        46.54202        -1.03274
C         20.82943        48.66950        -0.96488
C         19.55515        47.94799        -0.85607
C         20.94188        50.01315        -0.41198
C         19.79349        50.63467         0.11609
C         20.94855        52.81195        -0.03994
C         19.82083        52.04410         0.29615
C         20.88035        54.24291        -0.58430
C         19.58186        55.06034        -0.38972
C         20.94643        57.14529        -0.62960
C         19.70195        56.43689        -0.52855
C         20.94208        58.52918        -0.84561
C         23.81884         4.17468        -4.17431
C         22.59535         4.79876        -4.16828
C         23.44794         6.35059        -2.32557
C         22.30168         5.85313        -3.19504
C         23.31310         7.69851        -1.60861
C         22.22807         8.56612        -2.19564
C         23.37731        10.52071        -1.08240
C         22.26165        10.04602        -1.96355
C         23.33079        11.94659        -0.74449
C         22.02416        12.64469        -0.65022
C         23.13522        14.52254         0.59201
C         21.96674        13.96735        -0.13443
C         23.05176        15.92030         1.14722
C         21.83751        16.71031         0.83962
C         23.09966        18.87963         1.57353
C         21.84440        18.18745         1.09288
C         23.18626        20.34107         1.91705
C         22.06890        21.11231         2.23512
C         23.12839        23.17496         1.59131
C         21.91465        22.48340         1.92414
C         23.08276        24.58726         1.45776
C         21.88760        25.29866         1.73345
C         23.19497        27.36886         1.86984
C         21.88803        26.72887         1.95920
C         23.46977        28.66140         2.38264
C         21.60841        29.70513         2.79150
C         23.07366        31.62992         2.03833
C         21.74192        31.03688         2.36585
C         23.08702        33.13752         1.79357
C         21.80432        33.88180         1.98944
C         23.08968        36.13367         1.82379
C         21.79219        35.37754         1.86477
C         23.10233        37.61322         1.58364
C         21.84446        38.30274         1.25476
C         23.13983        40.34787         0.74363
C         21.87896        39.61181         0.81110
C         23.15041        41.68014         0.35948
C         21.94655        42.32537        -0.10774
C         23.26569        44.36615        -0.63227
C         21.98591        43.67511        -0.51909
C         23.32787        45.74241        -1.10552
C         22.06336        46.42995        -1.55146
C         23.36442        48.63122        -1.02841
C         22.09660        47.94217        -1.33237
C         23.38387        49.99514        -0.76122
C         22.15828        50.71488        -0.47424
C         23.46003        52.82786        -0.07355
C         22.15554        52.10833        -0.25299
C         23.38419        54.30514        -0.35273
C         22.19478        55.00000        -0.36002
C         23.39794        57.16850        -0.63732
C         22.19646        56.44290        -0.52500
C         23.39173        58.55216        -0.95281
C         22.14735        59.25070        -1.03479
C         23.35138        61.31779        -1.52168
C         22.15213        60.64518        -1.30956
C         24.90505         4.64969        -3.39754
C         25.93451         6.47130        -2.11975
C         24.79426         5.80218        -2.60293
C         25.86656         7.77487        -1.55626
C         24.61976         8.44590        -1.45558
C         25.79062        10.44501        -0.52653
C         24.57778         9.80866        -1.02951
C         25.74870        11.71776         0.00439
C         24.55974        12.56129        -0.15742
C         25.62370        14.54881         0.83472
C         24.48197        13.89685         0.47777
C         25.62576        16.06281         0.92716
C         24.34214        16.62069         1.52444
C         25.66203        18.84644         2.02695
C         24.34293        18.07161         1.85060
C         25.64982        20.24302         1.34502
C         24.37710        21.02846         1.59157
C         25.63385        23.12140         1.27787
C         24.36357        22.42699         1.48308
C         25.56773        24.60125         1.25641
C         24.27062        25.29376         0.86258
C         25.50424        27.47481         1.05007
C         24.30927        26.75267         1.23943
C         25.58753        28.85635         1.32529
C         24.50426        29.49898         1.95793
C         25.57815        31.76925         1.62728
C         24.45796        30.99033         2.32927
C         25.55448        33.18385         1.51797
C         24.35085        33.88827         1.74439
C         25.60440        36.11206         1.40312
C         24.31456        35.34282         1.51189
C         25.60684        37.59920         1.49890
C         24.38664        38.30575         1.32966
C         25.64494        40.39765         1.06311
C         24.39487        39.68341         1.07695
C         25.68942        41.78593         0.74975
C         24.37361        42.53240         0.63680
C         25.78438        44.25326        -0.68327
C         24.43654        43.75105        -0.23600
C         25.80041        45.73351        -1.00339
C         24.52873        46.42057        -1.18695
C         25.78338        48.53867        -1.35224
C         24.58649        47.88051        -1.24017
C         25.91532        49.96364        -0.88983
C         24.62465        50.73721        -0.79538
C         25.88654        52.85470        -0.89983
C         24.65324        52.10791        -0.67024
C         25.91228        54.25729        -0.74723
C         24.69495        54.98974        -0.33014
C         25.92458        57.16799        -0.94282
C         24.69759        56.49838        -0.45860
C         25.85695        58.54368        -1.23232
C         24.62521        59.25319        -1.20083
C         24.57345        60.63767        -1.48238
C         27.06644         8.43877        -1.15293
C         28.25885        10.40754        -0.26999
C         27.05653         9.72812        -0.61280
C         28.25535        11.71690         0.23898
C         26.95566        12.33957         0.57735
C         28.16547        14.58127         0.95384
C         26.90609        13.81008         0.93865
C         28.14535        15.94629         1.23366
C         26.92282        16.71340         1.39867
C         28.16519        18.87788         1.60186
C         26.93441        18.08426         1.64004
C         28.15683        20.25831         1.50463
C         26.88997        21.04846         1.78752
C         28.15239        23.25406         1.34030
C         26.84401        22.47800         1.27343
C         28.05724        24.61496         0.71012
C         26.85121        25.35827         0.98324
C         28.01070        27.50597         0.33245
C         26.70837        26.76896         0.53941
C         28.07873        28.91351         0.71103
C         26.88221        29.55608         1.26891
C         28.04902        31.77024         0.92573
C         26.84687        31.06093         1.45417
C         28.07894        33.25710         1.08761
C         26.79785        33.94796         1.38053
C         28.08935        36.03803         1.79928
C         26.83297        35.31397         1.52462
C         28.04578        37.53963         1.81240
C         26.81175        38.30066         1.54779
C         28.10759        40.44728         1.47048
C         26.86472        39.72088         1.36969
C         28.14036        41.83619         1.12187
C         26.91304        42.46621         0.71684
C         28.23729        44.41958        -0.25560
C         26.91532        43.93060         0.30366
C         28.29038        45.62325        -1.16934
C         26.98713        46.37774        -1.19953
C         28.30052        48.53538        -1.58770
C         27.00787        47.77023        -1.78535
C         28.26968        49.98194        -1.90062
C         26.99389        50.73198        -1.60734
C         28.26868        52.87522        -1.55638
C         27.04940        52.18132        -1.35578
C         28.28129        54.27065        -1.39823
C         27.10604        54.98397        -1.04862
C         27.09619        56.41522        -1.09846
C         29.42030        12.47413         0.42275
C         30.62635        14.56490         0.74075
C         29.40884        13.85927         0.74983
C         30.68379        15.94755         1.01320
C         29.44200        16.61429         1.46452
C         30.69596        18.80237         1.19698
C         29.46025        18.13912         1.60485
C         30.70258        20.26132         1.15531
C         29.42016        21.03137         1.36720
C         30.49071        23.08525         0.45250
C         29.37170        22.45739         0.90828
C         30.50090        24.50161        -0.00611
C         29.19917        25.28851         0.09028
C         30.48524        27.44149         0.22990
C         29.27680        26.76612         0.23183
C         30.54364        28.86765         0.47988
C         29.31768        29.54227         0.76074
C         30.62161        31.69027         1.16443
C         29.33246        31.02394         0.79379
C         30.66365        33.15230         1.48018
C         29.39461        33.93357         1.28111
C         30.58057        36.02569         1.58862
C         29.39250        35.35673         1.64874
C         30.53803        37.49264         1.39848
C         29.30495        38.25447         1.63230
C         30.60671        40.22444         1.93480
C         29.30998        39.63728         1.69837
C         30.59996        42.28491         1.52150
C         29.37434        42.63372         0.98191
C         30.67763        44.56649         0.03332
C         29.40751        43.85451         0.18226
C         30.66045        45.93800        -0.41807
C         29.50321        46.50575        -0.89470
C         30.75748        48.63974        -1.33381
C         29.48144        47.90955        -1.27310
C         30.80262        49.97095        -2.06918
C         29.52282        50.76268        -1.90948
C         29.49099        52.12118        -1.81396
C         31.87074        16.67162         0.89088
C         33.11851        18.80258         0.67801
C         31.89600        18.09932         0.93625
C         33.17537        20.20594         0.52113
C         31.86116        20.90980         0.47726
C         33.03934        23.15131         0.27877
C         31.76903        22.36356         0.20756
C         33.00514        24.59823        -0.03269
C         31.77503        25.24242        -0.07728
C         33.02767        27.45296        -0.12569
C         31.71614        26.71297        -0.18115
C         33.03804        28.81360         0.47725
C         31.78814        29.59041         0.56086
C         33.10901        31.71077         0.86443
C         31.87361        30.96602         0.86485
C         33.14465        33.17360         1.15607
C         31.96391        33.89009         1.46515
C         32.97486        36.14240         1.92880
C         31.87179        35.32765         1.61799
C         33.05840        37.54160         1.62577
C         31.82297        38.24478         1.20946
C         33.01835        40.45144         1.20757
C         31.80032        39.68191         1.54957
C         33.06042        41.92512         1.08351
C         31.89445        42.70722         1.03537
C         33.17712        44.64313         0.14271
C         31.89636        43.99986         0.41609
C         33.16994        45.97509        -0.24199
C         31.89201        46.77134        -0.12202
C         31.89579        48.07474        -0.87156
C         34.33379        20.92158         0.22893
C         35.52165        23.17231        -0.21262
C         34.35210        22.39843         0.24335
C         35.49285        24.53490        -0.32843
C         34.26364        25.29247        -0.15243
C         35.50450        27.44001        -0.30415
C         34.29932        26.69797        -0.13027
C         35.52587        28.86644        -0.16168
C         34.37054        29.55423         0.48438
C         35.53844        31.73894         0.29027
C         34.29578        31.02016         0.56048
C         35.43071        33.21045         0.08529
C         34.40708        33.86710         0.93822
C         35.87629        35.91925         0.96538
C         34.78881        35.08885         1.47493
C         36.06093        37.27528         1.31747
C         34.20191        38.30357         1.75897
C         35.62302        40.33320         0.96333
C         34.31349        39.64609         1.16378
C         35.54514        41.73008         0.72470
C         34.33673        42.50207         0.69292
C         34.36539        43.85512         0.29357
C         36.77750        25.25790        -0.71273
C         37.74528        27.50283        -1.26899
C         36.68974        26.77089        -0.76136
C         37.73324        28.94331        -1.28745
C         36.62397        29.58895        -0.62230
C         37.67213        31.85373        -1.12372
C         36.72754        31.02504        -0.31302
C         37.94463        33.25259        -0.60733
C         36.63078        33.96749        -0.36288
C         37.83262        36.14813        -0.53057
C         36.76909        35.38597         0.01170
C         37.85936        37.53801        -0.27805
C         36.91446        38.15150         0.59284
C         36.79528        39.59699         0.69569
C         38.77707        29.68914        -1.84592
C         39.88417        31.99526        -2.34124
C         38.73286        31.15392        -1.93068
C         39.88996        33.34828        -2.20050
C         38.86389        34.08655        -1.47585
C         38.81219        35.45402        -1.37539
O         29.65787        24.72285        -1.19997
O         30.62212        41.43522         2.63102
O         32.30740        27.32352        -1.39187
O         13.90199        35.76568         2.59051
O         10.58886        27.09797        -1.72901
O         30.56100        32.17386         2.57015
O         33.77129        22.91361         1.52419
O         36.68760        31.32986         1.11338
O         21.33835        48.63238        -2.37757
O         23.15615        37.02438         2.98474
O         15.42351        41.34532         1.02047
O         33.85749        28.86576         1.67917
O         35.54400        33.66034        -1.30782
O         14.34248        43.10065        -2.19703
O         27.09562        27.11521        -0.80641
O         18.69268        52.62947         0.84621
O         34.07381        35.56706         2.58825
O         16.94820        47.60923        -2.24532
O         16.05724        29.18209         3.28559
O         22.50877         5.37568        -1.77279
O          9.28968        30.07309         1.49145
O         19.11768        25.18354        -0.01299
O         17.48510        50.56277         0.68185
O         22.69419        29.12499         3.43866
O         27.18545        30.18709         2.59730
O         13.24666        23.38996        -2.08718
O         31.10946        37.80363         0.02945
O         27.29634        50.32037        -2.97562
O         24.85137        35.70246         0.18760
O         24.88047        55.85125         0.85590
O         28.56071        31.43409        -0.40146
O         15.92977        16.17288        -0.22941
O         22.99610        32.16874         0.68029
O         18.43774        45.11869        -2.53742
O         29.57982        17.24863         2.77158
O         27.99955        36.77479         3.09157
O         37.45963        31.70116        -2.53395
O         26.27553        25.19865         2.35715
O         21.00059        20.44176         2.83500
O         10.25266        33.72690        -0.83565
O         24.25584        12.74124        -1.63205
O         26.84788        12.76260         1.98220
O         16.89015        42.90330        -2.57265
O         24.28611        17.05133         2.91117
O         20.77449        54.07069        -1.97346
O         22.80349        14.77185         2.01800
O         21.68553        34.78231         3.18769
O         30.37184        20.84673         2.47626
O         22.77975        18.82746         0.11271
O         12.23418        39.29512        -1.26973
O         33.51602        39.81247        -0.05256
O         35.33705        37.80415         2.41065
O         14.65359        26.71886         2.72204
O         28.79672        33.84764        -0.06100
O         31.61964        21.40217        -0.89873
O         12.46039        22.45607         1.16334
H         12.30283        23.34661         1.54224
O         12.60051        42.05099         1.48092
H         13.33945        42.69944         1.62992
O         14.16627        24.35603         2.04294
H         14.41470        24.91616         2.82054
O         18.35985        15.59821         1.31206
H         17.56664        15.04026         1.45748
O         37.26344        24.75007        -1.96566
H         36.61297        24.97674        -2.66167
O         19.14482        34.16675         3.49727
H         19.99430        34.56932         3.80679
O         26.65919        44.74077         1.48774
H         27.28514        44.46324         2.18871
O         25.77955        20.03351        -0.07712
H         24.92703        19.68651        -0.42039
O         18.94825        29.66637         4.00000
H         17.97542        29.73023         4.13052
O          8.48861        31.86015        -1.63254
H          9.22204        32.51148        -1.76508
O         31.00745        49.71485        -3.47357
H         30.21730        49.24875        -3.81720
O         13.89642        44.31926         1.26036
H         13.40635        44.95636         1.82276
O         24.18697        25.16035        -0.58588
H         23.34825        25.56941        -0.88571
O         24.12643        43.05657         2.00034
H         24.04829        42.28308         2.59917
O         28.48557        45.12963        -2.53908
H         28.11756        45.81371        -3.14458
O         28.39440        23.49828         2.76899
H         27.97417        22.75525         3.27343
O          7.99522        36.03103         2.61578
H          8.90407        36.06032         2.98841
O         22.00489        46.20689        -2.99091
H         21.42066        46.90807        -3.36464
O         26.91654        47.58112        -3.24642
H         26.87101        48.49060        -3.63156
O         19.52175        41.80719        -2.20187
H         18.66463        42.14647        -2.59213
O         26.90648        21.27734         3.22537
H         26.80372        20.40716         3.68684
O         26.41540        49.86209         0.49425
H         25.69447        49.49734         1.05041
O         20.37410        37.66163         3.01039
H         21.23824        37.42164         3.42549
O         14.64572        34.04841        -0.61318
H         14.65147        33.15348        -1.01672
O         18.87091        22.36353         3.23834
H         19.50965        21.76205         3.68353
O         19.72176        17.11467        -1.70071
H         20.52695        17.65056        -1.86050
O         20.92301        35.97299        -0.21860
H         20.18474        36.37975        -0.72048
O         26.08951        43.51328        -1.89751
H         25.50143        43.83390        -2.61313
O         12.45503        41.57073        -2.06611
H         11.88014        40.75296        -2.12835
O         25.75575        19.03481         3.46340
H         25.51946        18.16980         3.87570
O         13.57183        29.69481         3.14736
H         14.32675        29.71089         3.78195
O         25.50932        16.50238        -0.47530
H         26.26986        16.14167        -0.97871
O         20.56656         9.90308        -0.27020
H         19.67498        10.19382         0.01300
O         22.85897         7.42874        -0.24122
H         22.35534         6.57994        -0.28426
O         11.51221        35.04929         2.79417
H         12.37179        35.06622         3.28519
O         13.79906        17.83664         0.02470
H         14.30441        17.07389         0.38559
O         38.62575        33.09169         0.66264
H         38.83144        33.98182         1.01713
O         23.70592        52.74959         1.38673
H         24.34343        53.46115         1.61699
O         15.87106        25.40331        -1.00896
H         16.76730        25.22548        -1.36776
O         11.15228        29.54914        -1.54145
H         10.91275        28.84625        -2.19485
O         14.29711        19.79928        -2.99423
H         13.84968        20.60615        -3.32376
O         22.55219        10.65366        -3.26622
H         23.02539        11.50182        -3.11306
O         15.64925        36.95055        -1.09429
H         15.21108        36.07056        -1.17241
O         31.80543        47.14047         1.30857
H         31.81405        46.30415         1.82174
O         24.69112        31.11990         3.74829
H         25.57623        30.72841         3.92980
H          4.81264        31.15603        -0.00239
H          4.77497        33.58097         0.31218
H          7.42780        26.95875        -0.92801
H          6.08250        29.02553        -0.27942
H          5.95357        35.75417         0.59080
H          7.22296        38.00863         0.57346
H         10.28080        22.75895        -1.37380
H          8.69010        24.73093        -0.55219
H          8.42726        40.11533         0.38443
H          9.66836        42.24267         0.02607
H         12.67527        18.88376        -2.01759
H         11.32030        20.50751        -1.23116
H         11.38664        43.96516        -1.02700
H         12.42856        46.48338        -0.22966
H         15.70277        14.69059        -3.20665
H         14.82789        17.53129        -3.14771
H         13.59383        48.53046        -0.57617
H         14.66626        50.62672        -1.14408
H         17.95245        10.66049        -3.46970
H         16.74901        12.72990        -3.12548
H         15.99765        52.97911        -1.19685
H         17.53869        55.09332        -1.12927
H         20.30590         6.36105        -4.01599
H         19.19836         8.54733        -3.84043
H         18.78325        57.04717        -0.52651
H         19.98181        59.06262        -0.91203
H         23.99956         3.34438        -4.87202
H         21.81928         4.51744        -4.89458
H         23.33986        62.39541        -1.73718
H         21.19666        61.18645        -1.36080
H         25.89665         4.19480        -3.53614
H         26.92333         6.01410        -2.27475
H         26.77176        59.07712        -1.53188
H         25.50954        61.18145        -1.67435
H         28.02203         7.90317        -1.25371
H         29.22162         9.91152        -0.46454
H         29.21217        54.82950        -1.57574
H         28.02128        56.92939        -1.40073
H         30.39463        12.00319         0.22346
H         31.55392        14.03014         0.48925
H         31.67901        50.57069        -1.72046
H         30.43568        52.68633        -1.84630
H         32.79646        16.13615         0.63436
H         34.04591        18.21669         0.59619
H         34.11474        46.50032        -0.44830
H         32.85128        48.61619        -0.95658
H         35.28835        20.38862         0.10292
H         36.45088        22.62971        -0.44339
H         36.47591        42.25429         0.45584
H         35.33455        44.32066         0.05818
H         37.55972        24.99168         0.04969
H         38.61494        26.97423        -1.68641
H         38.60117        38.16688        -0.79235
H         37.65667        40.17617         0.32329
H         39.66082        29.16526        -2.24018
H         40.72650        31.50019        -2.84815
H         40.73237        33.92417        -2.61475
H         39.53994        36.06846        -1.92825
