         210
 CSIRO Nanostructure Databank - Neutral Graphene Oxide Data Set
C         30.51623        31.55972        -0.09195
C         30.58849        32.78725        -0.36266
C         30.61507        35.86765        -0.87328
C         30.59312        37.11407        -1.01097
C         30.52815        40.23842        -0.87116
C         30.44308        41.48385        -0.72320
C         32.80060        28.94262         1.15223
C         31.71650        29.44070         0.78095
C         32.80242        31.60158         0.64174
C         31.58468        30.81902         0.44589
C         32.81687        32.98714         0.32245
C         31.67948        33.66474        -0.21810
C         32.91948        35.83527        -0.38768
C         31.70712        35.06244        -0.49036
C         32.91409        37.23786        -0.69872
C         31.71833        37.97386        -0.92000
C         32.83458        40.18253        -0.59067
C         31.67549        39.41203        -0.85501
C         32.82005        41.60950        -0.45772
C         31.55673        42.33030        -0.52583
C         32.82791        44.31514        -0.46521
C         31.71528        43.74099        -0.48242
C         35.49423        27.41308         1.54247
C         35.28698        28.82304         1.47125
C         34.09282        29.50127         1.29650
C         35.22451        31.67419         1.25494
C         34.04717        30.95870         1.08464
C         35.20782        33.14686         1.27227
C         33.96951        33.83541         0.70970
C         35.33683        35.87994         0.23494
C         34.09153        35.20765         0.16176
C         35.49408        37.20630        -0.49084
C         34.19207        37.97500        -0.72184
C         35.26885        40.19937         0.08707
C         34.13919        39.47768        -0.60983
C         35.34174        41.64573        -0.35185
C         34.08300        42.33356        -0.41670
C         35.37039        44.43529        -0.60689
C         34.13221        43.75745        -0.48323
C         35.55409        45.82978        -0.72929
C         37.87291        27.30566         1.66679
C         36.49820        26.69394         1.44395
C         37.77699        28.81996         1.37187
C         36.56660        29.50443         1.44034
C         37.75895        31.71036         1.17979
C         36.51821        30.99848         1.68022
C         37.75553        33.10181         1.10077
C         36.51823        33.92284         1.42282
C         37.76792        35.97385         0.66848
C         36.51430        35.26593         0.69724
C         37.81856        37.36860         0.42616
C         36.60289        38.07649         0.08181
C         37.78411        40.27693         0.44784
C         36.57120        39.44280         0.08909
C         37.82681        41.51481        -0.43995
C         36.55770        42.30000        -0.51986
C         37.86394        44.40436        -0.96200
C         36.61942        43.72240        -0.70960
C         37.88942        45.79650        -1.16651
C         36.63574        46.41740        -0.95811
C         39.98001        24.76718        -0.29494
C         39.10678        25.37373         0.44451
C         40.26253        27.37242         0.79095
C         38.95635        26.65379         0.87126
C         40.23209        28.85162         0.80023
C         39.00661        29.52986         1.07328
C         40.19121        31.67005         0.78265
C         38.96727        30.96322         0.98014
C         40.18710        33.08368         0.88698
C         38.98721        33.81493         0.98103
C         40.20990        35.97741         0.93989
C         38.99627        35.26594         0.92108
C         40.26382        37.38645         0.74143
C         39.04471        38.10168         0.53284
C         40.31237        40.20513         0.32768
C         39.07715        39.50808         0.38564
C         40.36672        41.59393        -0.08302
C         39.14340        42.18032        -0.72088
C         40.46636        44.36443        -1.07915
C         39.12633        43.61381        -1.32968
C         40.47500        45.87127        -1.20436
C         39.11442        46.55939        -1.43514
C         40.28285        48.60286        -0.98547
C         39.21205        47.98490        -1.11408
C         42.20765        25.12288        -1.58610
C         41.15608        25.36743        -0.66326
C         42.58562        27.51532        -0.35759
C         41.43604        26.67717         0.06429
C         42.60027        28.87810        -0.10254
C         41.41372        29.56019         0.42635
C         42.65318        31.71395         0.35721
C         41.42314        30.97553         0.52736
C         42.70921        33.08555         0.65388
C         41.47552        33.75971         1.07534
C         42.74689        35.98966         1.01290
C         41.47358        35.27163         1.17650
C         42.72284        37.37950         1.03548
C         41.49697        38.09882         0.84055
C         42.77371        40.23601         0.67525
C         41.52662        39.51153         0.62657
C         42.78317        41.63838         0.42183
C         41.56753        42.28651        -0.00545
C         42.82685        44.50864        -0.03961
C         41.66752        43.68809        -0.49412
C         42.77901        45.93796        -0.15386
C         41.62771        46.64873        -0.66047
C         42.73109        48.71694        -0.13249
C         41.55771        48.07923        -0.60411
C         43.18921        25.80657        -1.95183
C         44.86340        27.68860        -1.41661
C         43.79316        26.78106        -0.91866
C         44.94424        29.05636        -1.01314
C         43.79603        29.66813        -0.39473
C         45.07466        31.79041        -0.20690
C         43.84765        31.04104        -0.08444
C         45.12916        33.16195         0.18068
C         43.92641        33.82931         0.58370
C         45.20947        35.91647         0.86086
C         43.96186        35.22886         0.86412
C         45.22495        37.32246         1.33795
C         43.93519        38.13728         1.50917
C         45.18957        40.29462         1.06137
C         43.99563        39.56926         0.98812
C         45.21004        41.70972         0.84492
C         43.99874        42.38406         0.54398
C         45.18191        44.57136         0.70215
C         43.98448        43.83579         0.39851
C         45.11476        45.99963         0.69262
C         43.93640        46.66767         0.30542
C         43.72959        48.05985         0.24654
C         47.08953        27.92729        -2.25636
C         46.03802        27.26311        -2.04318
C         47.31966        29.23803        -1.80373
C         46.15306        29.81820        -1.19998
C         47.50111        31.87272        -0.72671
C         46.24654        31.16505        -0.72236
C         47.56284        33.18624        -0.21495
C         46.37557        33.86630         0.17263
C         47.67623        35.99657         0.48050
C         46.41269        35.25731         0.55324
C         47.68821        37.38739         0.66866
C         46.51392        38.07762         1.22452
C         47.73679        40.33794         1.18848
C         46.46520        39.57900         1.33559
C         47.70475        41.80342         1.01566
C         46.46103        42.45675         0.93680
C         47.66075        44.59354         1.13914
C         46.42569        43.88648         0.93368
C         47.44851        45.99916         1.18689
C         46.36618        46.59463         1.01287
C         49.77537        29.47344        -2.37657
C         48.55442        29.94731        -1.84292
C         49.97499        31.91767        -1.24278
C         48.69487        31.23779        -1.26253
C         50.06915        33.21248        -0.64740
C         48.90252        33.79976         0.12977
C         50.13636        36.01181         0.15036
C         48.89227        35.31363         0.16191
C         50.19022        37.43330         0.34522
C         48.91452        38.16287         0.41111
C         50.23863        40.35160         0.85625
C         48.95060        39.64709         0.66304
C         50.22325        41.76411         1.10130
C         48.95225        42.48719         1.10101
C         50.19777        44.45940         1.37688
C         48.89719        43.91588         1.21279
C         50.90517        30.01530        -2.39319
C         52.33654        32.06283        -1.71681
C         51.16066        31.28850        -1.83006
C         52.35062        33.18835        -1.15899
C         51.29448        33.92615        -0.58112
C         52.47729        36.10238         0.01203
C         51.35269        35.26913        -0.09593
C         52.53264        37.32840         0.28846
C         51.39991        38.17244         0.43409
C         52.55749        40.41470         0.89205
C         51.42613        39.58995         0.70323
C         52.61410        41.64904         1.12723
C         51.48066        42.48311         1.24122
C         51.30987        43.88632         1.39667
O         34.19813        33.72533         2.17323
O         41.49075        43.78614        -1.96793
O         39.97015        46.22385        -2.53864
O         41.32322        26.67538         1.51984
O         41.52340        34.43187         2.38514
O         46.09232        37.45899         2.51193
O         38.52260        41.24586        -1.68233
O         48.74288        39.16239        -0.71020
O         34.39185        38.85411        -1.90013
O         47.24213        39.98500         2.52484
O         35.97863        36.81884        -1.80965
H         35.81280        37.58580        -2.40596
O         44.35913        25.98900         0.12502
H         45.18194        25.57530        -0.21073
O         36.65400        34.25965         2.83274
H         35.74254        34.30813         3.20356
O         43.70819        38.28995         2.93992
H         44.58912        38.19052         3.37695
O         39.02541        43.47949        -2.75509
H         39.91912        43.24991        -3.09510
O         37.61101        40.75741         1.82722
H         37.84424        40.02097         2.43250
O         49.14158        33.39899         1.53296
H         49.13051        32.41874         1.56982
O         38.21513        27.19510         3.04693
H         38.47051        26.26852         3.23840
O         34.86351        40.24411         1.49371
H         35.61721        40.64958         1.98644
O         36.53502        31.13557         3.13976
H         37.37045        30.74261         3.47151
