         344
 CSIRO Nanostructure Databank - Neutral Graphene Oxide Data Set
C          1.26160         3.50594         0.57795
C          0.07013         4.20600         0.71292
C          1.16950         6.27742         0.01626
C          0.02129         5.57925         0.45399
C          1.14234         7.72521        -0.23034
C         -0.02083         8.46773        -0.11222
C          1.12562        10.61010        -0.42309
C         -0.01677         9.89125        -0.16903
C          1.15556        12.06297        -0.44034
C         -0.05001        12.79659        -0.49752
C          1.17176        14.89973        -0.41468
C         -0.03919        14.17790        -0.50190
C          1.17216        16.34501        -0.39517
C         -0.03777        17.07247        -0.45367
C          1.16602        19.17848        -0.37745
C         -0.03871        18.45556        -0.43686
C          1.13299        20.65769        -0.44245
C         -0.09010        21.42770        -0.15068
C          1.19053        23.48953         0.27441
C         -0.04962        22.76779         0.06250
C          1.19387        24.88358         0.56724
C          0.11702        25.77291         0.33054
C          1.16889        27.62934         1.67541
C          0.12959        27.09039         0.72764
C          1.26392        29.13076         1.66876
C          3.68226         3.49297         0.10137
C          2.44005         4.18055         0.16185
C          3.57523         6.24325        -0.76500
C          2.37843         5.57231        -0.13714
C          3.59028         7.73699        -0.56056
C          2.38880         8.41584        -0.46778
C          3.64586        10.60696        -0.40017
C          2.38364         9.88659        -0.80465
C          3.64323        12.02358        -0.30425
C          2.38887        12.75832        -0.39139
C          3.64174        14.89774        -0.20356
C          2.40573        14.18349        -0.34394
C          3.63926        16.31743        -0.16977
C          2.40321        17.05231        -0.29980
C          3.65423        19.19378        -0.13105
C          2.39972        18.48084        -0.29203
C          3.68201        20.58881        -0.01858
C          2.45712        21.38612        -0.21330
C          3.66325        23.41892         0.53106
C          2.40632        22.76189         0.28986
C          3.66715        24.79603         0.75693
C          2.42288        25.45459         1.25678
C          3.66767        27.65717         1.18391
C          2.45503        26.95536         1.30763
C          3.70531        29.11275         1.37769
C          2.43751        29.79346         1.57722
C          6.13781         3.52661         0.03565
C          4.90161         4.18196        -0.12263
C          6.08217         6.28857        -0.60652
C          4.88974         5.58185        -0.44667
C          6.06668         7.74522        -0.72263
C          4.84038         8.44772        -0.60609
C          6.11397        10.53803        -0.28359
C          4.86981         9.87033        -0.42942
C          6.07904        11.94552         0.26829
C          4.85309        12.72500        -0.13227
C          6.12005        14.82022         0.04428
C          4.88915        14.15291        -0.09516
C          6.11347        16.28695         0.41081
C          4.86063        17.03726         0.00920
C          6.12595        19.15682         0.17466
C          4.87666        18.43804         0.01377
C          6.13356        20.53709         0.29545
C          4.90818        21.29464         0.24496
C          6.16249        23.42947         0.79943
C          4.89892        22.68932         0.40945
C          6.14617        24.88415         0.41815
C          4.83102        25.60596         0.28674
C          6.19759        27.63563         1.07666
C          4.85999        26.98389         0.87977
C          6.14958        29.15094         1.02993
C          4.89001        29.80712         1.26826
C          8.59444         3.56293         0.01815
C          7.35402         4.22374        -0.13609
C          8.57088         6.30020        -0.72565
C          7.34087         5.61683        -0.47295
C          8.47992         7.69990        -1.32730
C          7.28035         8.45538        -0.80344
C          8.61044        10.52891        -0.43796
C          7.32604         9.84898        -0.53257
C          8.61487        11.84075         0.32334
C          7.37542        12.68351         0.10493
C          8.59963        14.83861         0.09353
C          7.38173        14.09121         0.09627
C          8.54040        16.23657        -0.47634
C          7.36410        17.03367         0.02522
C          8.62625        19.14993        -0.13017
C          7.37941        18.40486         0.05307
C          8.63218        20.54968         0.02249
C          7.43096        21.24469         0.59336
C          8.54365        23.42481        -0.03780
C          7.40780        22.72864         0.33134
C          8.56620        24.88721         0.01182
C          7.30268        25.57245         0.21771
C          8.57415        27.74908         0.31787
C          7.24117        27.07798         0.09571
C          8.58077        29.13114         0.60701
C          7.32939        29.82943         0.85523
C         11.03752         3.56197         0.00114
C          9.79887         4.24365        -0.19302
C         11.08918         6.19420        -1.12979
C          9.77762         5.62328        -0.60852
C         11.09092         7.72282        -1.22071
C          9.79636         8.49103        -1.25627
C         11.08757        10.57433        -0.62497
C          9.80539         9.89423        -0.74203
C         11.13144        11.94789        -0.31423
C          9.91948        12.63188         0.20309
C         11.18679        14.93840         0.07777
C          9.88797        14.15497         0.25199
C         11.02851        16.30784        -0.54831
C          9.84409        16.99696        -0.44144
C         11.08315        19.14563        -0.36745
C          9.83840        18.44068        -0.39750
C         11.12753        20.61320        -0.06288
C          9.81008        21.32033        -0.19930
C         10.96175        23.47170        -0.76693
C          9.77372        22.70901        -0.31485
C         10.96559        24.96820        -0.63083
C          9.73490        25.61647        -0.13600
C         11.02606        27.73213         0.12019
C          9.77461        27.04773         0.10151
C         11.01807        29.12862         0.35865
C          9.81949        29.80175         0.61970
C         13.45095         3.57443         0.31684
C         12.26360         4.23000        -0.01035
C         13.62457         6.17490        -0.84299
C         12.27637         5.72505        -0.24353
C         13.63231         7.69838        -1.00787
C         12.35341         8.44644        -0.91141
C         13.59741        10.55425        -0.69506
C         12.33954         9.83095        -0.78450
C         13.55992        12.01097        -0.91650
C         12.31488        12.73018        -0.56297
C         13.56751        14.84153        -0.66439
C         12.34607        14.12029        -0.45856
C         13.57345        16.32488        -0.72184
C         12.28455        17.05347        -0.73565
C         13.57578        19.19472        -0.47176
C         12.30198        18.49661        -0.47847
C         13.58979        20.60909        -0.60961
C         12.28910        21.27938        -0.75995
C         13.54680        23.49088        -0.88502
C         12.26877        22.75899        -0.95211
C         13.49310        24.99112        -1.10659
C         12.25876        25.68126        -0.53238
C         13.56120        27.70000         0.01846
C         12.26369        27.00070        -0.16334
C         13.55573        29.19406         0.27886
C         12.26400        29.98046         0.27691
C         15.83721         3.57908         0.85667
C         14.71921         4.24007         0.37703
C         15.98471         6.34671         0.12703
C         14.80615         5.62987        -0.05511
C         16.06457         7.76361        -0.14450
C         14.90678         8.45794        -0.74143
C         16.06673        10.64774        -0.40500
C         14.82585         9.92315        -0.60288
C         16.09057        12.06317        -0.45811
C         14.87994        12.76749        -0.95234
C         15.93729        15.07642        -1.25178
C         14.78488        14.24639        -0.93909
C         16.05367        16.36375        -0.73650
C         14.81558        17.01284        -0.17862
C         16.02358        19.20901        -0.55647
C         14.80329        18.50310        -0.44550
C         16.02382        20.63578        -0.66313
C         14.78155        21.34065        -0.71677
C         16.02202        23.50896        -0.90199
C         14.74900        22.79692        -0.83727
C         15.99521        24.95872        -0.90573
C         14.80681        25.66820        -0.79129
C         16.00204        27.80934        -0.43373
C         14.81215        27.07494        -0.46976
C         15.99982        29.25173        -0.17434
C         14.78293        29.92874         0.02154
C         18.24595         3.62724         1.63458
C         17.19503         4.20128         0.72397
C         18.18483         6.45326         1.21687
C         17.12658         5.70943         0.75860
C         18.30185         7.85619         0.87716
C         17.18403         8.49902         0.21439
C         18.45471        10.62537         0.16423
C         17.24237         9.93279        -0.02322
C         18.47018        12.03089         0.09724
C         17.26946        12.74729        -0.05815
C         18.53212        14.95192         0.09677
C         17.32018        14.15629         0.46125
C         18.51290        16.35658        -0.21099
C         17.29871        17.06755        -0.51495
C         18.50705        19.21910        -0.47775
C         17.28000        18.48647        -0.50671
C         18.49184        20.65056        -0.61531
C         17.25879        21.36182        -0.73090
C         18.53955        23.50787        -1.13067
C         17.22838        22.79351        -0.87192
C         18.52797        24.97617        -0.77919
C         17.27676        25.72649        -1.14492
C         18.46058        27.82932        -0.50596
C         17.26396        27.15243        -0.65192
C         18.49026        29.33528        -0.59831
C         17.19695        29.97098        -0.21055
C         19.18460         4.37115         2.22751
C         20.56032         6.48449         1.97048
C         19.19722         5.87474         2.17918
C         20.66576         7.75970         1.52165
C         19.51443         8.51083         1.06599
C         20.55295        10.78052         1.48065
C         19.74306         9.90878         0.53437
C         20.58588        12.11133         1.33180
C         19.81322        12.74046         0.18685
C         20.95676        14.97696         0.10548
C         19.74112        14.25761         0.18479
C         20.95464        16.35186        -0.01773
C         19.74532        17.07846        -0.19555
C         20.95467        19.25588        -0.34721
C         19.73792        18.51081        -0.35615
C         20.95338        20.62345        -0.41219
C         19.73947        21.36788        -0.55588
C         20.92660        23.53010        -0.34751
C         19.75382        22.77732        -0.61870
C         20.91649        24.90286        -0.30433
C         19.69873        25.65070        -0.49590
C         20.84240        27.81695         0.00598
C         19.71155        27.11595        -0.36436
C         20.80452        29.23015         0.27203
C         19.68894        29.96226         0.05080
O         10.71128        24.32733        -1.95390
O         14.51788         8.06390        -2.12455
O         13.06215        16.77480        -2.01363
O         16.51887        14.51254         1.32755
O         14.25632        12.27996        -2.19480
O         10.08750        13.33677         1.49584
O         13.67787        28.23412         1.39763
O         10.56247         8.26369        -2.49623
O          1.88575        21.21435        -1.56796
O         12.10616        21.81527        -2.09770
O         17.64006         3.86769        -0.64578
H         16.92162         4.13619        -1.25817
O         16.91896        14.54698        -2.03536
H         16.62009        13.69572        -2.41572
O          2.24780        25.01455         2.65519
H          1.52755        25.58722         3.03027
O         13.32558        25.14229        -2.55953
H         12.45873        24.72045        -2.78339
O          8.16320         7.49315        -2.73654
H          9.00002         7.62339        -3.24191
O         13.77871         5.57610        -2.14761
H         14.26823         6.22819        -2.70076
O          6.80755        27.43801        -1.25378
H          7.51100        27.15898        -1.87769
O         20.55240         9.74767        -0.68378
H         20.06192         9.15184        -1.28915
O         20.52610        12.44608        -1.04583
H         20.69486        11.46871        -1.07617
O         18.62338        29.62077        -2.05668
H         17.99779        29.02306        -2.52218
O          8.25930        16.05213        -1.92348
H          8.30624        16.93516        -2.34921
O          0.76763        27.24395         3.05986
H          1.32008        27.76874         3.67785
O         12.29495        30.92451         1.35813
H         12.48835        30.42237         2.17748
O         17.33585        25.86609        -2.61830
H         17.56107        24.96796        -2.97073
O         12.13152         6.33495         1.06136
H         12.15039         7.31179         0.96896
O          6.10723        16.28007         1.89300
H          5.31393        15.77813         2.17870
O         18.76778         6.31386         3.51763
H         18.79043         7.29426         3.52215
O          5.89989        11.74549         1.73228
H          6.78367        11.42372         2.05538
O         14.81358        16.84587         1.27022
H         15.36290        16.05507         1.48981
O         18.68204        23.47093        -2.62345
H         19.59002        23.78473        -2.82752
O         11.63855        15.31954         1.42346
H         11.37241        14.58439         2.02512
O         11.24644         5.65781        -2.45611
H         10.86226         6.30858        -3.08382
O          2.40977         9.92533        -2.29053
H          3.06115         9.25268        -2.58834
O          7.60091        21.11980         2.07902
H          8.49446        21.46801         2.29143
O         11.45650        20.73658         1.36950
H         10.96760        20.03657         1.85236
O          8.55254        11.37467         1.73354
H          8.95551        12.10608         2.26357
O          3.39833         6.07580        -2.22829
H          3.43334         5.11294        -2.41384
O          4.60732        25.78827        -1.16803
H          5.29937        26.42922        -1.47796
O          6.67255        27.26259         2.40677
H          5.96886        27.47845         3.05339
O          6.17496        23.41774         2.27218
H          6.47947        22.51344         2.54069
H          1.30737         2.43111         0.80370
H         -0.83979         3.68358         1.03994
H         -0.93136         6.10771         0.59144
H         -0.97903         7.97234         0.09355
H         -0.96150        10.40737         0.05272
H         -1.01148        12.27159        -0.56979
H         -0.99896        14.70462        -0.57124
H         -1.00124        16.55325        -0.52481
H         -0.99711        18.98685        -0.50497
H         -1.06115        20.91276        -0.13833
H         -0.99319        23.31236         0.21361
H         -0.73419        25.41622        -0.27031
H         -0.64190        27.77712         0.34694
H          0.32773        29.69190         1.81172
H          3.71294         2.42169         0.34863
H          2.45208        30.89331         1.62982
H          6.15827         2.45961         0.30103
H          4.87903        30.90662         1.33570
H          8.61122         2.50046         0.30158
H          7.34938        30.92872         0.91811
H         11.01310         2.48662         0.23492
H          9.85544        30.88125         0.82596
H         13.41549         2.50320         0.56794
H         12.21793        30.58260        -0.67148
H         15.75646         2.52565         1.16464
H         14.75808        31.02795         0.01749
H         18.26986         2.53041         1.73149
H         17.16898        31.06358        -0.08009
H         19.94972         3.89199         2.85847
H         21.45308         5.93020         2.29530
H         21.65316         8.23884         1.44507
H         21.12592        10.29014         2.28236
H         21.19012        12.74248         2.00113
H         21.90720        14.42966         0.16883
H         21.91851        16.87732        -0.01558
H         21.91882        18.73677        -0.27250
H         21.91663        21.14918        -0.39528
H         21.86377        23.01119        -0.10494
H         21.85127        25.42862        -0.07373
H         21.79359        27.29828         0.18329
H         21.70462        29.70138         0.69337
H         19.66358        31.03967         0.26972
