         234
 CSIRO Nanostructure Databank - Neutral Graphene Oxide Data Set
C          1.51434         2.11277         1.57046
C          1.56284         3.50018         1.69123
C          2.60634         1.39816         1.07533
C          2.71548         4.23141         1.30806
C          1.72235         6.44344         1.99568
C          1.81416         7.77823         2.21962
C          2.81339         5.66394         1.44879
C          3.08669         8.49511         2.03987
C          2.20065        10.65599         2.85945
C          2.35695        12.01474         3.08381
C          3.13489         9.97834         2.06363
C          3.35679        12.71786         2.39723
C          2.11309        15.85643         2.26423
C          1.85520        17.00454         1.52516
C          3.21346        15.04590         1.93294
C          2.79789        17.43174         0.57204
C          2.65408        18.71380        -0.08986
C          3.79055         2.07035         0.70211
C          3.84204         3.50773         0.81111
C          4.89516         1.34180         0.18546
C          4.98410         4.19996         0.33523
C          3.95284         6.33030         0.95665
C          4.17389         7.75982         1.28610
C          4.99576         5.60151         0.32542
C          5.19479         8.57592         0.59484
C          4.17543        10.68734         1.40691
C          4.22367        12.11148         1.46931
C          5.22652         9.95463         0.70349
C          5.10745        12.85995         0.50097
C          4.08140        15.33467         0.87116
C          3.92796        16.62008         0.28567
C          5.07067        14.37017         0.26129
C          5.03805        17.19706        -0.43820
C          3.68486        19.27297        -0.77233
C          4.97911        18.61420        -0.81627
C          6.12965         1.94245        -0.12957
C          6.28542         3.44248         0.16726
C          7.26053         1.20303        -0.44536
C          7.22493         4.10176        -0.86727
C          6.05310         6.34907        -0.39823
C          6.14969         7.85003        -0.27757
C          7.23680         5.59573        -0.93848
C          7.42396         8.49687        -0.61779
C          6.32534        10.71812         0.10481
C          6.29683        12.08663         0.00717
C          7.59897         9.93169        -0.17974
C          7.29508        12.79346        -0.91130
C          6.26012        15.03003        -0.38890
C          6.18801        16.45836        -0.64226
C          7.35483        14.30102        -0.79779
C          7.34726        17.18507        -1.21922
C          6.12267        19.31288        -1.09228
C          7.44946        18.64418        -0.84735
C          8.50178         1.84313        -0.90858
C          8.47368         3.32781        -1.17295
C          9.82371         1.24647        -0.64487
C          9.77525         4.07295        -1.09306
C          8.49044         6.32633        -1.18988
C          8.51570         7.74158        -1.07269
C          9.76870         5.57219        -1.20076
C          9.74802         8.43199        -1.54983
C          8.58864        10.67178        -1.04421
C          8.66673        12.13913        -0.91251
C          9.78042         9.92954        -1.55023
C          9.83293        12.76861        -1.30399
C          8.50638        14.94139        -1.50505
C          8.56825        16.43238        -1.59954
C          9.79000        14.19500        -1.71319
C          9.88824        17.11511        -1.59938
C          8.65115        19.29846        -1.45483
C          9.85971        18.59568        -1.56429
C         11.00400         1.91391        -0.87529
C         10.98608         3.27891        -1.57033
C         12.24422         1.31530        -0.47953
C         12.29541         4.06676        -1.43038
C         11.06440         6.24184        -1.45167
C         11.02893         7.68682        -1.75518
C         12.26711         5.55246        -1.37456
C         12.35052         8.43207        -1.94061
C         11.08869        10.62905        -1.54978
C         11.07734        12.05993        -1.45161
C         12.27854         9.91955        -1.60459
C         12.30983        12.80369        -1.39056
C         11.10032        14.92876        -2.03969
C         11.05220        16.41691        -1.72673
C         12.31953        14.22735        -1.45058
C         12.35856        17.16839        -1.96148
C         11.08016        19.28065        -1.58768
C         12.29069        18.49873        -1.20038
C         13.46524         1.98163        -0.49093
C         13.55116         3.37940        -0.97975
C         14.65032         1.38169        -0.00869
C         14.74021         4.18723        -0.63649
C         13.51245         6.25591        -1.19218
C         13.45995         7.73119        -1.16965
C         14.71323         5.60272        -0.83136
C         14.74331         8.47980        -0.95074
C         13.55087        10.66433        -1.54158
C         13.53651        12.10600        -1.24377
C         14.84599         9.92748        -1.32539
C         14.71594        12.78629        -0.84619
C         13.52196        14.91225        -1.22195
C         13.60757        16.37174        -1.53583
C         14.68668        14.20010        -0.78953
C         14.77955        17.13927        -0.97615
C         13.56631        19.28984        -1.13271
C         14.70728        18.61895        -0.76473
C         15.86507         2.08760         0.05394
C         15.91486         3.50905        -0.25474
C         17.04946         1.43049         0.46353
C         17.16416         4.19343        -0.21780
C         15.96372         6.34868        -0.70263
C         15.98749         7.71983        -0.83442
C         17.22153         5.61631        -0.51492
C         17.23439         8.50182        -1.18513
C         16.02170        10.65391        -0.78015
C         15.94800        12.05376        -0.51837
C         17.20980         9.92836        -0.62604
C         17.07880        12.69348         0.04080
C         15.88152        14.93797        -0.29130
C         15.64664        16.38902        -0.05320
C         17.08399        14.17340         0.27468
C         16.28023        17.09351         0.91346
C         15.78180        19.26198        -0.06771
C         16.57334        18.51062         0.81830
C         18.27655         2.10015         0.49676
C         18.34773         3.48632         0.10613
C         19.47521         1.42792         0.90138
C         19.61135         4.14205         0.09537
C         18.43207         6.27437        -0.56674
C         18.51298         7.72192        -0.88908
C         19.74405         5.52253        -0.49850
C         19.74549         8.46062        -0.46653
C         18.38874        10.60048        -0.20302
C         18.30414        11.98029         0.17994
C         19.65099         9.91102        -0.14924
C         19.48208        12.64217         0.69755
C         18.14791        14.71042         1.22207
C         18.02259        15.95219         1.83898
C         19.37217        13.92636         1.32726
C         18.98283        16.95484         2.29820
C         17.66809        19.05189         1.52237
C         18.73219        18.37703         2.20024
C         20.66871         2.09856         0.94500
C         20.75117         3.47108         0.54562
C         21.99441         4.19423         0.69102
C         20.89279         6.30977         0.11023
C         20.90448         7.69379         0.07522
C         22.03962         5.54938         0.54675
C         22.07637         8.47171         0.38014
C         20.80159        10.57151         0.27368
C         20.72541        11.94231         0.72465
C         22.04084         9.83217         0.40504
C         21.85937        12.54643         1.31650
C         20.45570        14.31729         2.15247
C         20.16601        16.55236         2.95134
C         21.70779        13.69164         2.07655
C         21.09795        17.43533         3.49595
C         19.71256        19.25954         2.75056
C         20.85980        18.81353         3.38124
O          6.70061         4.70640        -2.05459
O         16.70801        16.38898         2.03827
O          8.81592        14.32980        -2.82218
O          4.35629        13.43940        -0.63605
O         10.12913         7.93975        -2.89251
O          9.92875         4.79539         0.13937
O         14.77138        16.68895        -2.36322
O          8.35451         2.42592        -2.28378
O          6.90103         3.50157         1.41238
O          4.23025         7.92091         2.76190
O         17.12909        14.79898        -1.07509
O         19.53962         8.07483        -1.90208
O         20.34003        15.19861         3.23712
O         14.47491        10.29954        -2.66929
O          5.46290         7.21757        -1.43156
O          8.71688        10.36533        -2.46899
O          3.51924        14.03074         2.83511
O          7.62944        16.92944        -2.62715
O         13.76834         8.28999         0.14997
O         13.25018         3.56114        -2.42741
O         10.78644         3.06329        -2.97855
H         11.66788         2.86005        -3.36677
O         12.70573         8.30649        -3.33178
H         11.88784         8.46315        -3.85607
O         17.14371         8.65027        -2.62785
H         18.06498         8.76223        -2.95919
O          6.77776        12.53838        -2.25127
H          7.37344        13.00942        -2.88278
O         20.13618         5.32493        -1.90459
H         20.13674         6.22419        -2.31421
O         12.43384        17.44190        -3.36533
H         12.35614        16.57853        -3.83384
O         12.06049        18.07811         0.20759
H         11.91418        18.88897         0.73974
O          7.67650        18.67984         0.61266
H          7.60848        19.61459         0.90060
O          8.27897         9.86697         1.13000
H          7.66396         9.44626         1.76934
O         11.28590        14.85461        -3.48424
H         10.38180        14.83360        -3.87991
H          0.60254         1.57571         1.86667
H          0.67868         4.02341         2.07977
H          2.55404         0.30359         0.98431
H          0.75969         5.94729         2.18137
H          0.91937         8.33926         2.52396
H          1.40841        10.10362         3.38090
H          1.71363        12.55173         3.79188
H          1.46421        15.56254         3.09919
H          0.97580        17.62584         1.74490
H          1.69912        19.24885         0.01803
H          4.75241         0.27181        -0.04004
H          3.58849        20.27297        -1.21915
H          7.26144         0.11122        -0.29286
H          6.07994        20.38764        -1.32666
H          9.85354         0.25215        -0.17171
H          8.68998        20.40038        -1.45749
H         12.20974         0.29390        -0.06905
H         11.09727        20.38154        -1.56904
H         14.62448         0.32966         0.31213
H         13.49801        20.37728        -0.96425
H         17.00342         0.36622         0.73792
H         15.89283        20.35507        -0.12211
H         19.41692         0.36838         1.18912
H         17.79014        20.14472         1.44364
H         21.58382         1.58828         1.27868
H         22.88541         3.64454         1.02731
H         22.97048         6.07597         0.79839
H         23.03063         7.96372         0.57219
H         22.97617        10.36973         0.60245
H         22.84200        12.06216         1.28607
H         22.54046        14.08446         2.67390
H         21.97361        17.04866         4.03152
H         19.53224        20.34129         2.67251
H         21.57367        19.53350         3.80369
