         280
 CSIRO Nanostructure Databank - Neutral Graphene Oxide Data Set
C        -11.27270         0.76364         0.43371
C        -10.22771         1.45336        -0.38011
C         -9.00198         0.66063        -0.72325
C         -7.74701         1.49078        -1.14869
C         -6.38201         0.76655        -1.09373
C         -5.08107         1.53787        -1.00924
C         -3.73543         0.88769        -0.55002
C         -2.60525         1.48872        -1.43384
C         -1.22133         0.74238        -1.43799
C          0.11129         1.58259        -1.41720
C          1.35579         0.73893        -1.08225
C          2.62750         1.51713        -0.69838
C          3.84556         0.73945        -0.27848
C          5.06466         1.49566         0.16863
C          6.27181         0.77884         0.67769
C          7.52814         1.57417         0.58876
C          8.77803         0.77008         0.41117
C         10.06630         1.51054         0.52415
C         11.23895         0.80615        -0.06463
C        -10.16395         2.95707        -0.43262
C         -8.96007         3.60350        -0.35666
C         -7.84468         2.62381        -0.11250
C         -6.06488         3.89977        -1.64698
C         -5.08301         3.06642        -0.80318
C         -3.72496         3.75347        -1.03541
C         -2.45832         2.97674        -1.07404
C         -1.28540         3.43518        -0.25039
C          0.04386         2.75950        -0.42741
C          1.30088         3.50620        -0.08259
C          2.53603         2.94121        -0.25625
C          3.74596         3.68405         0.17889
C          5.04623         2.97807         0.33467
C          6.25392         3.67717         1.02249
C          7.52592         3.09273         0.38712
C          8.83051         3.71587         0.84493
C         10.00980         2.97625         0.78906
C         -8.75589         5.04730        -0.26269
C         -7.60251         5.78268        -0.44197
C         -6.34953         5.36142        -1.22412
C         -5.05802         5.93270        -0.60174
C         -3.78399         5.15024        -0.48086
C         -2.63947         5.62425         0.36234
C         -1.35525         4.79812         0.39674
C         -0.10214         5.49461         0.82076
C          1.27417         4.82097         0.72354
C          2.43277         5.74111         0.31838
C          3.74055         5.03890         0.34013
C          4.96046         5.80576         0.85161
C          6.29310         5.09734         0.48611
C          7.54512         5.86869         0.86671
C          8.76141         5.13197         1.01778
C         -7.61750         7.22806        -0.18252
C         -6.46653         7.97003        -0.01196
C         -5.20509         7.21399         0.15544
C         -3.93888         7.89435         0.56237
C         -2.64676         7.10806         0.59401
C         -1.35044         7.82130         0.40197
C         -0.12210         7.01687         0.70816
C          1.11775         7.63204         1.30583
C          2.39820         7.21665         0.63942
C          3.65906         8.01836         0.96272
C          4.94779         7.29577         0.45773
C          6.19506         8.02379         1.01982
C          7.49144         7.25467         0.83886
C         -6.36276         9.38160         0.31437
C         -5.18536        10.01561         0.62696
C         -3.87486         9.36997         0.63082
C         -2.66714        10.01753         0.68404
C         -1.38113         9.36858         0.16494
C         -0.02864         9.96061         0.58644
C          1.12718         9.73358        -0.11278
C          2.51437        10.20514         0.19882
C          3.63292         9.45711         0.43153
C          4.95636        10.08928         0.33909
C          6.13399         9.44968         0.51964
C        -11.17130        -0.52091         0.83538
C         -9.91279        -1.30561         0.71796
C         -8.78684        -0.65683        -0.03950
C         -7.62955        -1.49274        -0.47552
C         -6.38011        -0.72713        -0.85432
C         -5.07609        -1.39725        -0.53968
C         -3.77765        -0.64626        -0.53069
C         -2.47959        -1.43561        -0.71139
C         -1.23208        -0.75816        -1.27048
C          0.07231        -1.60094        -1.30080
C          1.32177        -0.75968        -0.90050
C          2.39704        -1.38076        -0.02260
C          3.69266        -0.65631         0.25405
C          4.96666        -1.41144         0.63591
C          6.36814        -0.74736         0.69058
C          7.36750        -1.27713        -0.32823
C          8.64194        -0.49365        -0.41387
C          9.90224        -1.23072        -0.86839
C         11.16774        -0.44595        -0.55769
C         -9.84482        -2.76113         0.92400
C         -8.65050        -3.47305         0.70065
C         -7.54801        -2.85819         0.06999
C         -6.22912        -3.57136         0.08724
C         -5.12361        -2.89689        -0.71577
C         -3.85401        -3.65552        -0.86232
C         -2.53978        -2.94148        -0.74739
C         -1.29884        -3.74957        -1.14532
C         -0.09443        -2.95440        -0.63198
C          1.10916        -3.63455        -0.09381
C          2.37896        -2.87694         0.17172
C          3.66702        -3.62235         0.34184
C          4.98486        -2.89663         0.45923
C          6.24680        -3.57570         0.06924
C          7.38342        -2.78836        -0.59487
C          8.73753        -3.42517        -0.30775
C          9.88250        -2.68505        -0.38132
C         -8.51544        -4.88821         1.09713
C         -7.44308        -5.66928         0.78961
C         -6.34153        -5.08833        -0.03810
C         -5.09017        -5.87495        -0.28507
C         -3.86132        -5.16932        -0.79743
C         -2.59777        -5.96079        -0.92842
C         -1.35683        -5.17767        -0.57651
C         -0.10254        -5.89653        -0.20824
C          1.15686        -5.12875         0.08289
C          2.44832        -5.85925         0.29509
C          3.72024        -5.08790         0.04948
C          5.05236        -5.75794         0.05324
C          6.30816        -4.94795         0.06357
C          7.58579        -5.63099        -0.09920
C          8.73708        -4.88027        -0.16337
C         -7.37194        -7.13188         1.24791
C         -6.16544        -7.95507         0.68269
C         -4.88938        -7.06597         0.67084
C         -3.59050        -7.86983         0.45811
C         -2.66830        -7.48483        -0.67490
C         -1.28007        -8.13917        -0.58945
C         -0.00637        -7.35056        -0.56396
C          1.37878        -8.04071        -0.61586
C          2.47398        -7.39624         0.27350
C          3.85408        -8.01759        -0.11054
C          5.08328        -7.22515         0.34792
C          6.38831        -7.93869         0.20288
C          7.63825        -7.15243        -0.20308
C         -5.91512        -9.21122         1.50235
C         -4.72912        -9.83927         1.54976
C         -3.50201        -9.28829         0.90240
C         -2.50052       -10.24117         0.21523
C         -1.18273        -9.56051        -0.16450
C          0.03612       -10.17179        -0.05880
C          1.34227        -9.52336        -0.24040
C          2.52167       -10.17147         0.01626
C          3.86958        -9.49968         0.33907
C          5.15332       -10.08836        -0.22653
C          6.29880        -9.37700        -0.21425
O         -1.33061        -0.15371        -2.58700
O          2.61185        -0.67551         1.23916
O          4.93546        -2.26962         1.80047
O          7.42415         3.63189        -0.99728
O         -5.57144         1.06268        -2.27734
O         -0.82556         2.41991         0.69868
O         -0.64713        -7.71220        -1.85114
O          7.61171        -0.40051        -1.45348
O          0.07242        -3.02979         0.78405
O          3.72135         8.13632         2.38956
O         -4.00465         6.08037        -1.60315
O          6.77203        -7.03812        -2.38031
H          6.10799        -7.77081        -2.27854
O          1.77729        -7.88436        -1.98704
O          6.19712         8.11419         2.46870
H          5.70263         7.32886         2.81576
O         -4.70526        -3.30030        -2.02820
O         -3.12412       -10.76367        -0.96184
H         -3.35426        -9.99868        -1.54314
O          1.61849         4.43703         2.07740
H          0.78956         4.10622         2.49893
O          9.52845         0.66249         1.64712
O         -0.88702         4.79055         1.79788
O          7.91584        -7.49529        -1.60875
H          3.92695        -7.18097        -1.91519
O         -2.79318         6.16158         1.69757
O         -4.46718        -1.01429         0.72081
O         -6.46683        -8.41289        -0.64236
H         -6.57803        -7.62420        -1.22692
O         -3.10920         1.39892        -2.75865
H         -2.57264         1.96714        -3.35007
O        -10.07268         0.74331        -1.68393
O          4.32562        -5.44334        -1.22842
O         -7.18388        -1.39470        -1.87350
O          9.87610        -1.33870        -2.31238
H          8.92549        -1.34958        -2.58065
O          2.84389        -3.28688         1.48467
O         -6.16270        -5.84176        -1.28359
O          1.08538         9.15535        -1.35500
H          1.98966         9.03458        -1.70635
O          6.21942         3.65766         2.44267
H          6.45472         2.74606         2.74957
O         -7.34913         2.49572         0.99222
O         -2.27769        -2.22644         0.49143
O         -7.32178        -7.14947         2.67899
H         -6.44655        -6.77382         2.93487
O          5.83139        -7.61202         1.52357
O          3.63710         1.08920        -1.66661
O          6.87564         1.29743         1.89283
O         -2.87945        -8.19672         1.68988
O          2.23676         6.73117        -0.73233
O         -5.25887         3.36122         0.59318
H         -4.69057         2.74188         1.11359
O          1.66801        -5.42093         1.43334
O          0.31902        -1.99652        -2.65749
H          0.06675        -1.24910        -3.24669
O         -0.50217         7.27006        -0.67658
O         -1.08913        -5.49943         0.81734
O          2.18086        -7.81330         1.62417
H          1.74114        -7.05475         2.08550
O         -6.30136         3.58497        -2.79685
H         -6.59115         5.39196        -3.18320
O         -4.84743         7.28295         1.56188
O         -8.01488         1.95283        -2.46176
H         -7.31162         1.62623        -3.06567
O         -8.79095        -0.56541         1.41412
O         -2.88938         3.76018        -2.22826
O          1.75512        -0.15777        -2.15432
O         -6.54232         6.07141        -2.46752
O          6.45256         4.79886        -0.94871
O         -3.33534        -5.62026        -2.12068
O         -1.56105         9.53026        -1.25598
H         -0.82535         9.05033        -1.70225
O          4.82644         5.81545         2.28898
H          5.05425         4.92635         2.65693
O          6.99909        -1.13910         1.91656
H          6.44033        -0.86842         2.67478
O          4.00778        -9.65423         1.76200
H          3.32837        -9.08637         2.19534
O          0.29803         2.14019        -2.72006
H          0.66701         1.43702        -3.29854
O          4.07409        -8.08092        -1.53811
H          1.03341        -8.21150        -2.54209
O          5.00491         7.40560        -0.96927
H          4.20628         6.97144        -1.34686
O         -3.27843        -8.09116        -1.83781
H         -2.77883        -7.79087        -2.62888
O          5.45380         2.37650        -0.92392
O         -3.47597         1.32463         0.79776
H         -3.77099         0.60953         1.41154
O         -5.71524        -3.41045         1.45672
H         -6.43506        -3.62916         2.08709
O          7.14169        -2.93538        -2.01979
H          7.24178        -3.88380        -2.25275
O         -4.77289        -6.44982         1.97869
H         -4.04293        -6.92020         2.45304
O          1.09239         8.12836         2.43012
H          2.83143         8.41349         2.72211
O         -1.24420        -3.91274        -2.56320
H         -2.06742        -4.38119        -2.84730
H         12.09535        -0.91306        -0.92428
H         12.21994         1.30239         0.00303
H         10.96751         3.49852         0.94276
H          9.68318         5.68598         1.25369
H          8.42000         7.81782         1.03120
H          7.07548        10.00675         0.39560
H          4.96679        11.14846         0.03377
H          2.68190        11.27704        -0.01958
H          0.05079        10.42436         1.57921
H         -2.66490        11.11822         0.73933
H         -5.21322        11.09798         0.82728
H         -7.28788         9.97846         0.29658
H         -8.59944         7.71937        -0.08391
H         -9.64194         5.61669         0.07124
H        -11.11009         3.51733        -0.51280
H        -12.20456         1.31707         0.62867
H        -12.01632        -0.99557         1.35743
H        -10.72569        -3.28354         1.32392
H         -9.34635        -5.32711         1.67065
H         -8.31711        -7.65242         0.94769
H         -6.78358        -9.65999         2.00806
H         -4.62811       -10.78537         2.10464
H         -2.28964       -11.10744         0.89223
H          0.06114       -11.21708         0.29208
H          2.46901       -11.24389         0.27372
H          5.16791       -11.13717        -0.56058
H          7.22888        -9.83717        -0.58371
H          8.53070        -7.53691         0.35111
H          9.71314        -5.39049        -0.17338
H         10.85368        -3.19748        -0.28377
