         276
 CSIRO Nanostructure Databank - Neutral Graphene Oxide Data Set
C        -10.93184         0.61138         0.53730
C         -9.65086         1.36222         0.27402
C         -8.72789         0.67462        -0.72603
C         -7.41642         1.41601        -0.91585
C         -6.14693         0.60611        -0.84699
C         -4.86337         1.32868        -0.47249
C         -3.68046         0.60777         0.11819
C         -2.43737         1.38404         0.57739
C         -1.35414         0.73257         1.39550
C         -0.03622         1.50993         1.52616
C          1.26251         0.75372         1.45823
C          2.60500         1.51643         1.45750
C          3.74151         0.75994         0.78357
C          5.04904         1.47322         0.67853
C          6.31666         0.69304         0.91431
C          7.62180         1.43837         0.76199
C          8.92538         0.73717         0.63118
C         10.14106         1.46477         0.02469
C         10.47484         0.84412        -1.32951
C         -9.78763         2.85392         0.03632
C         -8.70175         3.58822        -0.28503
C         -7.42517         2.89234        -0.64166
C         -6.17305         3.58329        -0.19582
C         -4.90957         2.79732        -0.15627
C         -3.59580         3.50425        -0.31358
C         -2.37067         2.84881         0.27901
C         -1.29024         3.71166         0.87557
C         -0.05790         3.02010         1.38994
C          1.23978         3.70930         1.00884
C          2.51413         2.93677         0.89755
C          3.83400         3.67826         0.84840
C          5.09636         2.91386         1.13147
C          6.40108         3.63249         1.02313
C          7.43562         2.82894         0.11722
C          8.73785         3.61146        -0.08698
C          9.94695         2.95262        -0.08771
C         -8.73798         5.11612        -0.30781
C         -7.41311         5.81703        -0.61431
C         -6.12423         5.12897        -0.18000
C         -4.86685         5.71606        -0.85256
C         -3.57546         4.95487        -0.65459
C         -2.26813         5.69683        -0.52916
C         -1.13722         5.07497         0.24203
C          0.00013         5.93982         0.72316
C          1.28119         5.21881         1.03384
C          2.54321         5.94660         0.52150
C          3.86816         5.16945         0.72720
C          5.12723         5.91173         1.09641
C          6.53926         5.20769         1.06102
C          7.43504         5.74112        -0.05530
C          8.58835         4.98793        -0.40974
C         -7.40486         7.13876        -0.90850
C         -6.17693         7.95655        -1.27724
C         -4.85805         7.19935        -1.03954
C         -3.64250         7.93214        -0.51979
C         -2.33898         7.20308        -0.45281
C         -1.04266         7.96286        -0.56616
C          0.13285         7.32229         0.11651
C          1.29858         8.16009         0.57179
C          2.56213         7.42684         0.91247
C          3.85317         8.18092         0.76989
C          5.13786         7.39886         0.91610
C          6.46763         8.03587         0.48878
C          7.33442         7.09256        -0.34040
C         -6.11657         9.38779        -0.79441
C         -4.97629        10.08223        -0.66042
C         -3.61758         9.46740        -0.42975
C         -2.39488        10.08500        -1.03725
C         -1.03165         9.45776        -0.96954
C         -0.01903        10.23232        -0.04156
C          1.33848         9.54959         0.03534
C          2.52282        10.13346        -0.27629
C          3.83115         9.53141         0.11114
C          5.12152         9.98659        -0.46806
C          6.28401         9.34852        -0.24693
C        -11.05738        -0.71216         0.36075
C        -10.13234        -1.55662        -0.49333
C         -8.81987        -0.81791        -0.85353
C         -7.53339        -1.61284        -0.90560
C         -6.20400        -0.88781        -0.73372
C         -5.27990        -1.46483         0.36110
C         -3.89623        -0.79117         0.62517
C         -2.67967        -1.51008         1.16700
C         -1.35256        -0.77207         1.40402
C         -0.03520        -1.47865         1.15862
C          1.15718        -0.61297         0.79016
C          2.37276        -1.27487         0.19754
C          3.67476        -0.73655         0.73429
C          4.93502        -1.52475         0.67719
C          6.25860        -0.80405         0.94910
C          7.49800        -1.68504         0.99002
C          9.18379        -0.78099         0.68010
C          9.71654        -1.39478        -0.60487
C         10.34064        -0.47781        -1.55577
C         -9.98114        -3.00516        -0.05839
C         -8.86591        -3.73928        -0.24527
C         -7.57605        -3.06898        -0.57464
C         -6.32348        -3.78928        -0.13504
C         -5.19180        -3.00176         0.47235
C         -3.96441        -3.72507         0.95424
C         -2.64441        -3.01035         1.15436
C         -1.35353        -3.72239         0.85003
C         -0.04156        -2.93816         0.78609
C          1.07616        -3.52826        -0.04482
C          2.31796        -2.71010        -0.30932
C          3.64247        -3.41296        -0.59046
C          4.94961        -2.60999        -0.38625
C          6.23841        -3.47534        -0.39392
C          7.53959        -2.88448         0.08337
C          8.88165        -3.66400         0.09421
C          9.73767        -2.74193        -0.78110
C         -8.88069        -5.24663        -0.44719
C         -7.74725        -6.02915         0.28850
C         -6.38540        -5.24452         0.19665
C         -5.23339        -5.94104         0.86998
C         -3.85222        -5.25325         0.99436
C         -2.76111        -5.77943         0.06123
C         -1.45733        -5.03832         0.09301
C         -0.18106        -5.79768        -0.16444
C          1.11534        -5.03951        -0.13580
C          2.24060        -5.61210        -0.98590
C          3.61485        -4.90397        -0.78546
C          4.81400        -5.66453        -0.28035
C          6.14660        -4.96266        -0.19391
C          7.39756        -5.77050        -0.20595
C          8.71010        -5.06804        -0.54533
C         -7.37761        -7.32787        -0.34889
C         -6.48658        -8.27553         0.37472
C         -5.21647        -7.42368         0.81149
C         -3.93360        -8.05809         0.35604
C         -2.79260        -7.26549        -0.20191
C         -1.52805        -8.06333        -0.61257
C         -0.24525        -7.19540        -0.75359
C          1.06738        -7.93156        -0.86937
C          2.35436        -7.14381        -0.94318
C          3.64612        -7.88877        -0.85672
C          4.80709        -7.16945        -0.24754
C          6.09569        -7.90583        -0.01986
C          7.35155        -7.12172        -0.08113
C         -6.09053        -9.52106        -0.40815
C         -4.91390       -10.15451        -0.26503
C         -3.84950        -9.54618         0.64322
C         -2.43900       -10.08248         0.56937
C         -1.34814        -9.36099         0.16676
C          0.00349        -9.90167         0.23723
C          1.12269        -9.29232        -0.24620
C          2.48654        -9.81429         0.21688
C          3.58902        -9.42987        -0.78879
C          4.95385       -10.04261        -0.53747
C          6.09211        -9.36115        -0.32460
O         -5.65259         3.03356         1.06965
O          5.97682         3.09689         2.27022
O          1.52514        -0.41663        -0.60892
O         -3.67059        -0.92436         2.05605
O          5.14207        -7.65031         1.09036
O          0.36620        -2.50247         2.11436
O          5.07558         6.78226         2.24598
O         -7.48014        -2.61514        -1.96996
O         -2.36981        -4.93566        -1.05011
O         -1.56429         0.01146         2.62213
O          7.22137         5.54592         2.20300
O         -0.02374         7.26397        -1.33628
O         -1.18097         5.05940        -1.22053
O          7.15576        -2.84984        -1.33431
O         -3.44047         3.92843        -1.69375
O          0.69957        -5.76869         1.03168
O         -3.88415        -7.69412        -1.06425
O         -5.81176        -0.28914        -1.97320
O         -4.73986         6.28988        -2.19466
O          0.62412         0.97966         2.72902
O         -5.00231        -3.32908         1.89955
O         -5.95067        -4.81573        -1.11571
O         -5.46532        -6.76395         2.06337
O          5.29405        -5.14557         0.99585
O         -3.13048         7.43626         0.77322
O          4.10053        -1.59438         1.85387
O          0.46704         5.79677         2.08252
O          1.69730         7.92662         1.95695
O          3.82159        -4.01824        -1.91871
O         -0.99858         3.66746         2.29315
O          6.19777        -0.02947         2.17873
O          0.30378        -7.52600        -2.05347
O         -9.14617         0.08405        -1.97601
O         -1.75031         1.88818        -0.62395
O          8.51434         1.33714         1.89414
O          1.29514        -2.87954        -1.32344
O          3.90516         9.38323         1.58177
O          4.23025         1.26499        -0.49521
O         -1.77743        -8.69809        -1.83262
O          3.19568        -7.44171        -2.15675
O          4.07463         4.33029        -0.44780
O         -7.42787         2.38655        -2.01609
O          9.92373        -1.10115         1.71655
O          6.82782         2.64212        -1.08327
O          1.69403         3.14603        -0.27533
O         -1.87137        -3.65847         2.20219
O         -6.02917         5.56002         1.15418
O         -3.79900         0.82746        -1.30981
O         11.25575         1.22842         0.89911
H         11.08294         0.37757         1.38266
O         -0.50162         9.56601        -2.31042
H          0.00254         8.73517        -2.48966
O         -8.10455        -6.12742         1.65524
H         -7.70001        -6.94704         2.03524
O          8.76166        -4.96954        -1.97615
H          8.15390        -4.24050        -2.24518
O         -8.75972        -5.47136        -1.84965
H         -8.23329        -4.74758        -2.25473
O          7.63380        -2.14414         2.28463
H          7.39500        -1.41028         2.89884
O         -4.31945        -9.71167         2.01540
H         -4.10216       -10.62196         2.30742
O         -3.35927        -5.61487         2.29120
H         -3.90618        -5.16565         2.97114
O         -3.28036         9.89188         0.93397
H         -2.85930         9.11489         1.38693
O          5.00419        -1.77395        -1.56538
H          4.90097        -2.34722        -2.35733
O          2.75494        -9.21754         1.49081
H          3.68144        -8.87609         1.52430
O          3.03252         1.67438         2.82362
H          2.25050         1.54556         3.41271
O         -6.30979         8.15457        -2.71740
H         -6.00100         7.32230        -3.14773
O         -7.08647        -8.70145         1.61582
H         -6.37366        -9.14069         2.13760
O         -6.10015        -1.07768         1.49534
H         -5.60819        -1.34120         2.31059
O          7.30782         8.22177         1.64553
H          7.28816         7.35071         2.14478
O         -0.57788        10.22474         1.26939
H          0.13020        10.39672         1.92481
O        -10.88196        -1.73417        -1.73044
H        -10.61828        -0.99783        -2.33211
O          9.43472        -3.82979         1.38927
H          9.69995        -2.93582         1.73695
O         -8.86879         1.23438         1.51158
H         -9.32557         1.73374         2.22102
O          2.36690         6.03148        -0.91242
H          2.54742         5.13554        -1.29080
O          1.78702        -5.30154        -2.30860
H          2.35791        -5.77292        -2.95316
O         -9.74685         5.56129        -1.21690
H         -9.54190         5.20907        -2.10744
O          3.17126        -9.95594        -2.06041
H          2.95999        -9.19025        -2.64781
H         10.69101        -0.90601        -2.50818
H         10.95109         1.48248        -2.08776
H         10.87385         3.55011        -0.06540
H          9.39489         5.49475        -0.96716
H          8.09114         7.55470        -0.99804
H          7.20778         9.78307        -0.66035
H          5.11880        10.91933        -1.05320
H          2.53692        11.14396        -0.71614
H          0.09159        11.28380        -0.42807
H         -2.42908        11.15359        -1.30619
H         -5.02918        11.16286        -0.45530
H         -7.06885         9.94039        -0.81174
H         -8.37156         7.63044        -1.10825
H         -9.06019         5.45519         0.71377
H        -10.74175         3.34808         0.27852
H        -11.72670         1.16375         1.06476
H        -11.99469        -1.20383         0.66578
H        -10.93344        -3.52635         0.13237
H         -9.85733        -5.67080        -0.10463
H         -7.32177        -7.30967        -1.45149
H         -6.86487        -9.95306        -1.06054
H         -4.70443       -11.07760        -0.82563
H         -2.27848       -11.08584         0.99883
H          0.12268       -10.84977         0.78651
H          2.43464       -10.93320         0.32276
H          5.00661       -11.12928        -0.70331
H          7.05196        -9.89691        -0.26768
H          8.29166        -7.69316        -0.13327
H          9.56022        -5.71728        -0.22580
H         10.23197        -3.16930        -1.66854
