         204
 CSIRO Nanostructure Databank - Neutral Graphene Oxide Data Set
C        -11.03724         0.72065         0.39515
C         -9.85468         1.48092         0.03398
C         -8.64173         0.73697        -0.30260
C         -7.43348         1.42748        -0.55737
C         -6.19069         0.70777        -0.68766
C         -4.95245         1.39898        -0.76943
C         -3.74078         0.68946        -0.74660
C         -2.48382         1.40859        -0.62462
C         -1.24019         0.69044        -0.67594
C         -0.01673         1.39413        -0.61836
C          1.23756         0.68705        -0.66352
C          2.45795         1.39467        -0.63093
C          3.70053         0.70832        -0.64655
C          4.92356         1.43232        -0.61779
C          6.21177         0.71392        -0.90418
C          7.44050         1.43276        -0.40947
C          8.65545         0.71364        -0.29817
C          9.88408         1.42893        -0.10092
C         11.11286         0.68076        -0.05118
C         -9.87845         2.84761        -0.01353
C         -8.73717         3.62620        -0.60270
C         -7.41935         2.87523        -0.54035
C         -6.24046         3.56643        -0.62281
C         -4.93543         2.89304        -0.99263
C         -3.72422         3.54882        -0.36109
C         -2.48838         2.77962        -0.33020
C         -1.25102         3.47537        -0.12384
C         -0.01225         2.81103        -0.37941
C          1.19106         3.53933        -0.30358
C          2.45746         2.89311        -0.78926
C          3.71041         3.55221        -0.27906
C          4.93204         2.83643        -0.36907
C          6.16725         3.53367        -0.16739
C          7.41843         2.82467        -0.20349
C          8.64286         3.53827         0.02520
C          9.86100         2.82600         0.03033
C         -8.64548         5.04883        -0.10352
C         -7.47864         5.75626        -0.16930
C         -6.23292         5.04136        -0.54726
C         -4.92332         5.71702        -0.22959
C         -3.73078         4.86754        -0.00551
C         -2.53022         5.44454         0.71720
C         -1.24696         4.83308         0.25081
C         -0.05032         5.56902         0.33547
C          1.19243         4.90102         0.06962
C          2.42401         5.61086         0.26527
C          3.69607         4.90570         0.12347
C          4.91404         5.57461         0.36627
C          6.14692         4.91128         0.15837
C          7.39479         5.64107         0.27050
C          8.59873         4.95829         0.19481
C         -7.38957         7.17983         0.07599
C         -6.18994         7.84237         0.29505
C         -4.96542         7.05981         0.38453
C         -3.79629         7.54590         0.93045
C         -2.50914         6.95030         0.72207
C         -1.34103         7.70568         0.61776
C         -0.07099         6.99530         0.54051
C          1.15021         7.68791         0.60462
C          2.38767         6.96413         0.61156
C          3.62416         7.68286         0.98506
C          4.95180         6.92486         1.03989
C          6.15128         7.74241         0.58445
C          7.33023         7.08710         0.34936
C         -6.17254         9.30311         0.23217
C         -5.08898        10.13724         0.21511
C         -3.76306         9.69060         0.61186
C         -2.52580         9.94786         0.09440
C         -1.32400         9.16085         0.40777
C         -0.10367         9.80162         0.30213
C          1.15778         9.13974         0.51325
C          2.34954         9.83990         0.47824
C          3.60946         9.19297         0.86367
C          4.90355         9.87488         0.64132
C          6.06653         9.18885         0.52571
C        -11.05064        -0.63728         0.35324
C         -9.86897        -1.39580        -0.00369
C         -8.68594        -0.67775        -0.34349
C         -7.48390        -1.40625        -0.75259
C         -6.18906        -0.71319        -0.71780
C         -4.97830        -1.44496        -0.75528
C         -3.73272        -0.74234        -0.75694
C         -2.48882        -1.45404        -0.75865
C         -1.24627        -0.74556        -0.75001
C         -0.00721        -1.45151        -0.72619
C          1.23322        -0.74051        -0.68738
C          2.48386        -1.43778        -0.64332
C          3.70613        -0.72955        -0.63419
C          4.95931        -1.43695        -0.51330
C          6.18382        -0.74349        -0.51684
C          7.41081        -1.43977        -0.34142
C          8.65746        -0.71727        -0.31823
C          9.88610        -1.43369        -0.20453
C         11.11574        -0.68379        -0.12019
C         -9.86756        -2.79663         0.12216
C         -8.69868        -3.57974        -0.02713
C         -7.48370        -2.95221        -0.58147
C         -6.19393        -3.61627        -0.42144
C         -4.97726        -2.89158        -0.65322
C         -3.74211        -3.57781        -0.67494
C         -2.49121        -2.88815        -0.75001
C         -1.23270        -3.58177        -0.74548
C         -0.00967        -2.88647        -0.70327
C          1.26088        -3.58604        -0.56993
C          2.48680        -2.87138        -0.55725
C          3.72016        -3.57460        -0.40610
C          4.95427        -2.85756        -0.35674
C          6.17688        -3.55560        -0.14195
C          7.41041        -2.84718        -0.14874
C          8.66655        -3.57735        -0.05591
C          9.88379        -2.83618        -0.13615
C         -8.64587        -4.92787         0.35183
C         -7.43691        -5.66889         0.29915
C         -6.20300        -4.98691        -0.02848
C         -4.99691        -5.71782        -0.02746
C         -3.78660        -5.04776        -0.53722
C         -2.49504        -5.78279        -0.41719
C         -1.21280        -5.05765        -0.65690
C          0.05836        -5.76556        -0.34564
C          1.30609        -4.98102        -0.35780
C          2.50820        -5.70517        -0.26850
C          3.73950        -4.99649        -0.32252
C          4.98741        -5.68399        -0.17306
C          6.16725        -4.98196         0.00682
C          7.40796        -5.67909         0.51329
C          8.66515        -4.96176         0.11130
C         -7.40315        -7.05683         0.57764
C         -6.20383        -7.78746         0.55447
C         -4.97235        -7.10741         0.25896
C         -3.74437        -7.83270         0.34360
C         -2.49074        -7.06147         0.34450
C         -1.19710        -7.73376         0.71519
C          0.11901        -6.97774         0.57517
C          1.31353        -7.82416         0.22224
C          2.46969        -7.15465        -0.11409
C          3.71323        -7.91832        -0.30446
C          5.01865        -7.15662        -0.29841
C          6.26754        -7.87537         0.04269
C          7.40599        -7.17463         0.30623
C         -6.14222        -9.19530         0.83697
C         -4.94833        -9.87177         0.88791
C         -3.69584        -9.19161         0.69713
C         -2.42862        -9.86889         0.81760
C         -1.20161        -9.21235         0.76356
C          0.05837        -9.89800         0.68518
C          1.27245        -9.25574         0.42677
C          2.52686        -9.97570         0.36963
C          3.71660        -9.34865         0.06744
C          5.00569       -10.00796         0.10333
C          6.19022        -9.32765         0.07451
O          6.33498         0.71897        -2.38953
H          7.15523         0.22686        -2.60952
O          2.47127         3.12910        -2.25418
H          3.25893         2.66458        -2.61195
O         -2.70073         5.03780         2.12851
H         -1.92394         5.37359         2.62471
O         -0.48422        -5.83995        -1.69620
O          3.47549         8.51488         2.18663
O          5.19684         6.62292         2.44840
H          4.81744         7.37853         2.95665
O         -1.99418        -7.02627         1.74142
O         -3.81895         8.74097         1.65757
O         -5.44508         5.68070        -1.62159
O          7.35462        -5.52300         1.99398
H          7.38727        -4.56018         2.18210
O         -7.66953        -2.31223        -1.88274
O          4.42177        -7.62066        -1.55972
O         -4.80224         3.08748        -2.44120
H         -4.87453         4.06221        -2.58903
O         -3.24001        -5.84968        -1.67107
O         -9.04895         3.74267        -2.04102
H         -8.26078         4.12936        -2.47976
O          0.44720        -6.42131         1.88411
H         -0.39545        -6.36972         2.39419
H         12.06420        -1.23851        -0.06836
H         12.05905         1.23174         0.05457
H         10.80574         3.37250         0.17056
H          9.54638         5.51068         0.28487
H          8.25072         7.66170         0.15806
H          6.99995         9.73901         0.32764
H          4.89709        10.97018         0.53627
H          2.35206        10.91603         0.24841
H         -0.08504        10.88310         0.09826
H         -2.40412        10.76789        -0.62967
H         -5.23266        11.18510        -0.09240
H         -7.14719         9.75371        -0.01946
H         -8.32529         7.75975         0.05607
H         -9.58077         5.56115         0.17096
H        -10.80449         3.38843         0.23562
H        -11.94572         1.27694         0.66949
H        -11.96483        -1.19155         0.61224
H        -10.78790        -3.29319         0.46564
H         -9.56335        -5.42415         0.70250
H         -8.34628        -7.57513         0.80753
H         -7.08280        -9.73184         1.03120
H         -4.93701       -10.94611         1.12377
H         -2.43875       -10.96570         0.91401
H          0.05227       -10.99420         0.78661
H          2.52519       -11.04795         0.62005
H          5.01823       -11.10310         0.21347
H          7.13378        -9.88718         0.16363
H          8.33332        -7.71553         0.55344
H          9.62501        -5.49535         0.18825
H         10.84020        -3.37489        -0.06154
