         671
 CSIRO Nanostructure Databank - Neutral Graphene Oxide Data Set
C          5.92781        31.72525         0.14310
C          5.95481        33.08887         0.15647
C          8.47798        27.41118        -0.40675
C          8.57199        28.88042        -0.09012
C          7.23038        29.60058         0.02382
C          8.41327        31.72268        -0.36796
C          7.13533        30.95750        -0.07576
C          8.27685        33.17885        -0.85760
C          7.15453        33.86249        -0.10045
C          8.46460        35.92783         0.14823
C          7.23022        35.18100         0.24808
C          8.52593        37.22496         0.62391
C         10.77232        23.18937        -1.18753
C         10.74270        24.58873        -1.29501
C          9.55505        25.30429        -1.04048
C         10.68997        27.44689        -1.59902
C          9.51194        26.73149        -1.01441
C         10.68206        28.94978        -1.67907
C          9.46819        29.58564        -1.08195
C         10.96199        32.01266        -1.67558
C          9.18779        30.87545        -1.33559
C         10.88122        33.27997        -1.12018
C          9.61501        33.94609        -0.80368
C         10.92552        36.06448        -0.46582
C          9.65238        35.25040        -0.35406
C         10.95830        37.27883         0.42354
C          9.78165        37.91925         0.79147
C         11.01484        39.85827         1.71497
C          9.81731        39.26111         1.32609
C         11.11206        41.20469         2.11882
C         13.21899        18.87653        -0.83097
C         13.19534        20.23242        -1.47846
C         11.97033        21.05587        -1.16798
C         13.22626        23.13480        -1.63128
C         11.97376        22.43066        -1.32325
C         13.23255        24.58320        -1.71500
C         11.99269        25.32145        -1.51834
C         13.20768        27.48322        -1.51624
C         11.96766        26.70112        -1.58681
C         13.22770        28.93034        -2.00407
C         11.97207        29.72018        -1.68846
C         13.35418        31.75470        -1.28984
C         12.08625        31.10970        -1.56323
C         13.36851        33.13335        -0.94207
C         12.14884        33.89636        -0.77610
C         13.43429        35.87008        -0.10704
C         12.18589        35.23549        -0.39581
C         13.49258        37.16619         0.47111
C         12.25550        38.03905         0.54310
C         13.55819        39.60631         2.09660
C         12.20283        38.92498         1.80270
C         13.63856        41.08818         2.53234
C         12.32986        41.86004         2.41029
C         13.58239        44.01074         2.59849
C         12.36324        43.24241         2.61900
C         13.64601        45.33962         2.92151
C         15.60635        14.90140         0.68114
C         15.58023        16.29870         0.44190
C         14.40120        16.94538         0.09836
C         15.57102        19.17842        -0.01045
C         14.34059        18.33700        -0.27316
C         15.60937        20.48608        -0.75994
C         14.45819        21.02887        -1.24192
C         15.69505        23.05593        -1.98960
C         14.41920        22.42820        -1.62577
C         15.66645        24.57544        -2.30463
C         14.42655        25.27033        -1.93674
C         15.71878        27.46555        -1.98344
C         14.50456        26.70652        -1.65892
C         15.73040        28.84891        -1.78336
C         14.53590        29.60702        -1.63939
C         15.80956        31.69753        -1.18513
C         14.57207        31.00234        -1.34736
C         15.84185        33.09018        -0.99166
C         14.61562        33.80072        -0.78124
C         15.89286        35.85419        -0.28933
C         14.64988        35.16305        -0.36750
C         15.92327        37.14634         0.26799
C         14.73909        37.73422         0.77169
C         16.17266        39.68436         1.79940
C         14.82977        38.94348         1.63612
C         16.04598        41.17637         1.38017
C         14.73870        41.86232         1.79048
C         16.02616        44.10640         1.86649
C         14.75813        43.34713         1.97072
C         16.07282        45.41942         2.22244
C         14.93319        46.12186         2.91312
C         15.88942        48.30927         2.04893
C         14.77790        47.54326         2.44009
C         15.83654        49.71340         2.04574
C         18.01986        10.73710         1.59367
C         18.01960        12.11632         1.38682
C         16.80820        12.81909         1.14554
C         18.12041        14.81434         0.45007
C         16.80099        14.18615         0.83873
C         18.13049        16.32019         0.45026
C         16.85406        17.09798         0.66199
C         18.12532        19.14989        -0.19248
C         16.83666        18.34812        -0.24203
C         18.14258        20.49762        -0.55560
C         16.86540        21.31706        -0.56865
C         18.14858        23.19340        -1.62784
C         16.95504        22.49921        -1.50571
C         18.13811        24.58601        -2.06090
C         16.96080        25.27237        -2.26141
C         18.21131        27.49526        -2.63064
C         16.92613        26.74914        -2.42448
C         18.28155        28.88426        -2.11286
C         17.05442        29.48484        -1.56767
C         18.34399        31.69203        -1.42239
C         17.08542        30.96361        -1.21274
C         18.32492        33.13339        -1.28454
C         17.09550        33.80597        -0.99737
C         18.32513        35.92321        -0.81090
C         17.11203        35.20067        -0.72421
C         18.37379        37.35664        -0.48732
C         17.13624        37.97549         0.13998
C         18.52043        39.85092         0.97257
C         17.32630        39.16282         0.96767
C         18.59336        41.18061         1.66182
C         17.27323        41.93783         1.95038
C         18.54283        44.12909         2.03048
C         17.31471        43.39479         1.44358
C         18.45181        45.57662         1.64190
C         17.26676        46.21280         1.89428
C         18.28761        48.37295         1.34575
C         17.16432        47.64902         1.73395
C         18.16511        49.85959         1.13674
C         17.12217        50.48583         2.06674
C         18.12777        52.70103         1.54981
C         16.99895        51.95634         1.78127
C         18.09860        54.13027         1.53525
C         20.42667         6.49657         2.01906
C         20.43419         7.88936         2.17539
C         19.22772         8.63812         1.98666
C         20.43050        10.78787         2.14731
C         19.21468        10.02985         1.90531
C         20.44573        12.16251         2.01203
C         19.26998        12.87128         1.51676
C         20.43832        15.13395         1.52820
C         19.30455        14.20038         1.16152
C         20.57254        16.31859         0.59182
C         19.31475        16.99555         0.29683
C         20.56610        19.06766        -0.27020
C         19.34351        18.42676        -0.04019
C         20.59849        20.44956        -0.61513
C         19.38117        21.17130        -0.77380
C         20.64024        23.16641        -1.47492
C         19.41120        22.54248        -1.23962
C         20.66888        24.52626        -2.07931
C         19.42154        25.38285        -1.89842
C         20.73322        27.43013        -2.39518
C         19.49293        26.65943        -2.77803
C         20.71465        28.91544        -2.62021
C         19.47008        29.57990        -2.06720
C         20.79516        31.68663        -1.75575
C         19.50310        30.97693        -1.71348
C         20.79682        33.17522        -1.59542
C         19.51217        33.88003        -1.42095
C         20.73523        36.05846        -1.32808
C         19.52111        35.28609        -1.21826
C         20.81809        37.33562        -0.75477
C         19.67336        37.99638        -0.22936
C         20.95075        40.01976         0.39414
C         19.72430        39.28778         0.36926
C         21.03419        41.35665         0.85956
C         19.87272        41.97575         1.55588
C         20.96555        44.19241         1.36578
C         19.82553        43.46292         1.58970
C         20.92486        45.63136         1.16898
C         19.56948        46.24613         0.91105
C         20.70869        48.48656         0.85551
C         19.54282        47.74302         1.06108
C         20.67250        49.94144         0.93806
C         19.48405        50.58385         1.21084
C         20.60534        52.78406         0.95252
C         19.49032        52.03053         1.61784
C         20.41384        54.23608         0.60186
C         19.25141        54.88686         1.31194
C         20.53118        56.97519         1.59153
C         19.31665        56.24245         1.65974
C         20.60300        58.27820         2.10529
C         22.85008         3.69026         1.59354
C         21.64965         4.36453         1.72176
C         22.87076         6.44944         2.20147
C         21.63393         5.76089         2.00089
C         22.86115         7.84095         2.53621
C         21.66460         8.56757         2.47994
C         22.95000        10.78905         2.68380
C         21.62505        10.04417         2.63315
C         22.98533        12.18385         2.19493
C         21.70896        12.92551         2.18547
C         23.02785        14.94689         1.30583
C         21.74957        14.39958         1.81446
C         23.03469        16.27233         0.72631
C         21.78250        16.92858         0.38539
C         23.02105        19.10022         0.15981
C         21.84710        18.25356        -0.35212
C         23.07868        20.43920        -0.55058
C         21.86360        21.12589        -0.82284
C         23.14929        23.13999        -1.47729
C         21.88686        22.47645        -1.28388
C         23.22732        24.55440        -1.84478
C         21.98400        25.22385        -2.30113
C         23.18240        27.44172        -1.91994
C         22.04257        26.72265        -2.64895
C         23.27701        28.90999        -2.28688
C         22.01359        29.63640        -2.30238
C         23.24339        31.78383        -2.64377
C         22.00842        31.00135        -2.24228
C         23.25994        33.24779        -2.22531
C         21.94915        33.94901        -2.14528
C         23.20365        36.19708        -2.09995
C         21.89950        35.44905        -2.01351
C         23.17281        37.67150        -1.72265
C         22.13487        38.00346        -0.66825
C         23.35550        40.24694        -0.41792
C         22.19077        39.40083        -0.10559
C         23.37234        41.56388         0.07523
C         22.21857        42.09826         0.73814
C         23.49040        44.27642         1.13763
C         22.27958        43.42408         1.47135
C         23.39230        45.77976         1.00080
C         22.05513        46.40658         0.97150
C         23.15384        48.58749         0.43828
C         21.98830        47.83464         0.71757
C         23.08321        50.04316         0.36595
C         21.89040        50.69984         0.70799
C         22.95117        52.92673         0.21091
C         21.79076        52.14757         0.63690
C         22.89483        54.32754         0.24350
C         21.70600        55.00128         0.66612
C         22.97576        57.06839         1.09607
C         21.72702        56.33588         1.07468
C         23.02405        58.37590         1.65914
C         21.83141        58.99082         2.16652
C         23.12957        60.96961         2.77233
C         21.90765        60.28827         2.71799
C         24.07292         4.37788         1.71401
C         25.36316         6.45205         2.11095
C         24.10030         5.74303         2.01309
C         25.41323         7.76611         2.44568
C         24.16845         8.49980         2.77166
C         25.43900        10.61745         2.04798
C         24.22832        10.00461         2.74087
C         25.45602        12.12410         2.22977
C         24.17253        12.84343         1.96821
C         25.49289        14.74936         1.02874
C         24.19857        14.20388         1.48261
C         25.51962        16.17718         0.50834
C         24.25465        16.92865         0.48441
C         25.53870        18.93560        -0.06708
C         24.31567        18.31475         0.14534
C         25.56836        20.30196        -0.62511
C         24.30403        21.08157        -0.75434
C         25.61249        23.18648        -1.10279
C         24.33376        22.43000        -1.19490
C         25.72417        24.50538        -1.84400
C         24.42140        25.26177        -1.83217
C         25.69623        27.38023        -1.94214
C         24.49292        26.69517        -1.99264
C         25.78320        28.82438        -2.38831
C         24.47740        29.58368        -2.23554
C         25.69046        31.73096        -2.15358
C         24.52140        31.04298        -2.30791
C         25.72308        33.21420        -2.30446
C         24.43252        33.93548        -2.17064
C         25.75654        36.11414        -1.77659
C         24.49313        35.42187        -2.13643
C         25.70550        37.51850        -1.53650
C         24.52580        38.24086        -1.36762
C         25.71801        40.37893        -1.09653
C         24.54479        39.63835        -0.98780
C         25.69430        41.86884        -0.92343
C         24.57494        42.35964        -0.03532
C         25.80390        44.44778         0.24324
C         24.63983        43.63831         0.48182
C         25.73281        45.82000         0.13592
C         24.51016        46.52221         0.38075
C         25.60703        48.64993        -0.17745
C         24.41052        47.90587         0.20776
C         25.45031        50.09886        -0.46849
C         24.22722        50.82351        -0.05173
C         25.36809        53.03391        -0.36583
C         24.17787        52.22993        -0.10628
C         25.36114        54.41874        -0.24343
C         24.05753        55.18126        -0.20365
C         25.34168        57.23773         0.53450
C         24.13912        56.49556         0.54841
C         25.41248        58.49462         1.12481
C         24.25753        59.08964         1.69900
C         24.29005        60.39035         2.27250
C         26.72037         8.46239         2.74898
C         27.92771        10.61451         2.27323
C         26.75052         9.94072         2.38055
C         28.01425        12.03614         1.98112
C         26.76169        12.82094         2.05861
C         27.96856        14.83219         1.30151
C         26.76895        14.18179         1.50213
C         28.00003        16.23364         0.91494
C         26.79412        16.91164         0.57049
C         28.04315        18.98888         0.23799
C         26.79463        18.27394         0.22445
C         28.11336        20.35332        -0.14185
C         26.88971        20.99800        -0.67023
C         28.18881        23.15721        -0.90001
C         26.87077        22.48150        -0.74506
C         28.15830        24.63012        -1.07804
C         26.89930        25.33146        -1.38954
C         28.14283        27.45963        -1.26977
C         26.92448        26.69311        -1.57304
C         28.13054        28.90562        -1.45454
C         26.99117        29.55866        -1.85400
C         28.21377        31.76603        -2.16001
C         26.93797        31.05080        -1.63752
C         28.24281        33.22365        -1.65575
C         27.00999        33.97722        -2.14522
C         28.24759        36.07964        -1.68661
C         27.00309        35.43603        -1.82825
C         28.27136        37.53124        -1.25747
C         26.99296        38.24591        -1.62815
C         28.26576        40.43948        -1.30151
C         26.97948        39.74278        -1.49353
C         28.23546        41.81745        -0.98012
C         27.05078        42.44198        -0.60986
C         28.30965        44.54590        -0.06822
C         27.10108        43.70195         0.21230
C         28.22490        45.88662        -0.27996
C         26.87343        46.53162        -0.54243
C         28.05357        48.76343        -0.87394
C         26.81726        48.02986        -0.37511
C         28.01168        50.23569        -0.58017
C         26.71856        50.89197        -0.73851
C         27.94833        53.14861        -0.42503
C         26.64587        52.38172        -0.69010
C         27.81216        54.55662        -0.05529
C         26.59128        55.17107        -0.16136
C         26.51114        56.67535        -0.22328
C         29.19269        12.69974         1.76417
C         30.42093        14.82381         1.47506
C         29.22982        14.13209         1.53007
C         30.46114        16.26052         1.31513
C         29.21057        16.94885         1.00400
C         30.44699        19.08365         0.80534
C         29.22718        18.34618         0.70660
C         30.51786        20.39628         0.34923
C         29.33549        21.04777        -0.10990
C         30.52418        23.20876        -0.09415
C         29.39189        22.48447        -0.34472
C         30.43477        24.67956         0.10785
C         29.22188        25.41735        -0.39780
C         30.38858        27.65265        -0.18863
C         29.22758        26.86870        -0.66048
C         30.45915        29.07061        -0.60172
C         29.35431        29.65767        -1.14877
C         30.76935        31.75967        -1.70186
C         29.47554        31.01367        -1.75621
C         30.82947        33.24253        -2.15956
C         29.52059        33.98221        -1.94552
C         30.77494        36.11798        -1.95528
C         29.49137        35.35451        -1.83245
C         30.76405        37.62591        -1.86050
C         29.50266        38.34211        -1.61103
C         30.76698        40.49535        -1.45433
C         29.50198        39.73149        -1.46985
C         30.75817        41.86054        -1.30450
C         29.47598        42.65786        -1.20989
C         30.81185        44.63590        -0.35888
C         29.60353        43.77277        -0.13237
C         30.70933        46.06402        -0.21278
C         29.43316        46.70365        -0.34139
C         30.53006        48.88837        -0.28458
C         29.34802        48.09531        -0.45573
C         30.44177        50.28808        -0.19542
C         29.19051        50.97933        -0.29774
C         29.14945        52.37807        -0.12362
C         31.63102        16.97448         1.45019
C         32.88237        19.21733         1.45906
C         31.58028        18.47320         1.59491
C         32.97877        20.45019         0.90855
C         31.86845        21.01309         0.04322
C         32.78026        23.29475         0.99874
C         31.90282        22.58102        -0.05310
C         32.83816        24.77366         0.61086
C         31.70193        25.43387         0.27455
C         32.94865        27.63781         0.09168
C         31.66526        26.92058         0.18612
C         32.94794        29.07064        -0.03917
C         31.64968        29.88235        -0.10751
C         33.01338        31.88829        -0.70070
C         31.85660        31.20347        -0.85141
C         33.28176        33.21206        -1.40648
C         32.00864        34.00372        -1.58008
C         33.25114        36.11885        -1.36739
C         32.02606        35.37487        -1.60481
C         33.27508        37.57107        -1.62488
C         32.02721        38.36011        -1.62029
C         33.27952        40.46092        -1.30172
C         32.03155        39.73949        -1.50013
C         33.30038        41.93247        -1.40927
C         31.99684        42.71604        -1.50484
C         33.25288        44.73981        -0.52126
C         32.00833        44.01888        -0.69139
C         33.22159        46.16171         0.01994
C         31.89122        46.85336        -0.15870
C         31.79456        48.23378        -0.14562
C         34.18456        21.26276         1.06732
C         35.41077        23.40202         1.37215
C         34.13761        22.61589         1.09690
C         35.15331        24.90907         1.53867
C         34.18513        25.42078         0.45219
C         35.36295        27.62794         0.51155
C         34.15427        26.93907         0.36197
C         35.46638        29.04002         0.00822
C         34.13883        29.75606         0.04211
C         35.40204        31.96595         0.21210
C         34.12591        31.23440         0.03000
C         35.49239        33.38380        -0.20155
C         34.41169        34.02152        -0.78881
C         35.60716        36.19127        -0.54589
C         34.42319        35.45387        -0.96069
C         35.65213        37.59197        -0.61374
C         34.56764        38.34261        -1.24915
C         35.64058        40.49593        -0.53238
C         34.47105        39.79715        -1.04454
C         35.64150        41.88071        -0.41739
C         34.56041        42.67491        -0.98609
C         34.45575        44.10715        -0.63571
C         36.44367        25.68063         1.55258
C         37.74403        27.73155         1.23118
C         36.53272        26.97504         1.06671
C         37.79143        29.11835         1.03857
C         36.62518        29.82834         0.57458
C         37.81167        31.96497         0.83452
C         36.64073        31.20915         0.50459
C         37.81756        33.37563         0.70650
C         36.68276        34.09096         0.18232
C         37.89259        36.21705         0.45960
C         36.72808        35.48798         0.01832
C         37.88893        37.61421         0.42364
C         36.76656        38.32952        -0.07310
C         36.75581        39.73266        -0.07131
C         38.95724        29.87044         1.37756
C         40.15585        32.02483         1.62915
C         38.98369        31.25957         1.27684
C         40.15867        33.38393         1.53740
C         39.00250        34.10939         1.06462
C         39.01767        35.49641         0.95936
O         10.43645        28.12899        -2.89601
O         21.75771        13.98187         3.21997
O         19.50440        41.26145         2.79557
O         26.08475        23.16522         0.29723
O         21.55923        34.77597        -3.27758
O         25.88206        50.37570        -1.85977
O         34.26330        37.95462        -2.62697
O          9.86118        31.52008        -2.37672
O         15.63161        23.57141        -3.35720
O         21.14375        32.33994        -0.44267
O         22.62490        38.17218         0.67844
O         34.27294        42.38190        -2.41893
O         25.52989        15.03226        -0.41955
O         30.45346        30.90157        -2.86005
O         23.82049        45.15010         2.27107
O         17.33174        27.27908        -3.78301
O         29.34823        25.05627         1.02230
O         21.31127        24.49261        -3.38989
O         17.19413        29.92790        -0.17176
O         28.52984        23.73922        -2.22262
O         14.28673        38.70268         2.99361
O         30.82853        36.90920        -3.17888
O         13.97652        27.14604        -0.33032
O         30.75651        27.47285         1.23572
O         27.01432        39.05783        -2.82549
O         27.39617        52.94736        -1.80110
O         26.12896        12.64484         3.40848
O         23.88157        36.00660        -3.37027
O         34.43181        31.82941         1.35197
O         24.39178         9.31378         3.99533
O         17.46558        38.19901        -1.28191
O         22.14319        10.60148         3.88524
O         26.50924        33.67161        -3.47350
O         26.36701        20.36016        -1.88331
O         14.27500        42.69401         0.69354
O         31.30556        30.23548         1.26162
H         31.10319        29.38760         1.72526
O         26.01469        28.76177        -3.84173
H         25.25215        28.29429        -4.24652
O         28.19242        33.20598        -0.20391
H         28.14533        34.13502         0.10541
O         17.66209        50.34407         3.44044
H         16.95713        50.61608         4.06586
O         31.08739        33.22503        -3.59470
H         30.49611        32.53053        -3.97449
O         22.07123        17.95156        -1.75202
H         22.10714        18.79703        -2.24749
O         31.90436        43.20078        -2.88549
H         32.82794        43.18045        -3.24383
O         14.03669        41.10545         3.92334
H         13.34670        40.64244         4.44316
O         31.20813        18.68676         3.01192
H         30.36952        18.20337         3.17220
O         19.99599        15.74512         2.77721
H         20.32908        15.16608         3.50420
O         34.49097        25.06728         2.82825
H         34.41669        26.02699         3.01665
O         22.40879        43.05500         2.87304
H         22.80693        43.83063         3.33115
O         26.63431        46.31766        -1.97528
H         27.21414        46.96309        -2.45549
O         18.55453        44.13559         3.47362
H         18.43647        43.20285         3.78058
O         11.89169        38.06439         2.92068
H         12.74146        37.68342         3.24263
O         26.30471        57.01222        -1.61871
H         26.95732        56.50863        -2.14956
O         12.34096        38.91932        -0.61661
H         12.15344        38.35920        -1.40625
O         35.79373        28.92157        -1.43941
H         35.22295        28.21636        -1.81409
O         22.31338        26.83235        -4.07414
H         21.66962        26.21646        -4.50710
O         15.50763        19.57739         1.40697
H         14.61714        19.95885         1.56340
O         32.13378        23.19891         2.28216
H         32.67582        23.71441         2.92024
O         16.90285        17.45082         2.06522
H         16.22730        18.14973         2.22967
O         34.29004        46.93592        -0.52580
H         34.15250        47.01063        -1.49219
O         10.93818        36.64864        -1.84231
H         10.06499        37.07735        -1.97542
O         22.72294        38.37966        -2.91014
H         23.20631        37.98851        -3.67327
O         16.73117        17.88025        -1.60918
H         17.46067        17.24467        -1.77427
O         15.33999        46.24004         4.33437
H         16.32100        46.26727         4.36265
O         17.51558        43.43653         0.01629
H         17.00413        42.68893        -0.38563
O         18.29649        14.45932        -0.97759
H         18.21266        13.48387        -1.04744
O         20.01642        54.23566        -0.82151
H         20.82463        54.06261        -1.35174
O         36.36354        23.18423         0.32724
H         36.06621        23.72156        -0.44583
O         27.78356         7.74861         2.12269
H         28.63253         8.03636         2.51297
O         32.52753        22.95305        -1.31617
H         32.60762        22.11057        -1.83710
O         19.82810        52.01930         3.05659
H         19.18333        51.39417         3.47881
O         29.23267        43.30417        -2.48018
H         30.09994        43.42464        -2.93867
O         27.22522        43.17965         1.58695
H         28.13665        42.79883         1.66238
O          9.18434        31.78501         0.86022
H          9.27761        30.86310         1.21234
O         25.21242        10.41355         0.61730
H         25.53529         9.51881         0.37720
O         16.77132        21.92126         0.76945
H         16.58693        21.17899         1.39476
O         34.65792        24.93977        -0.85452
H         33.98329        24.30262        -1.20364
O         16.58130        39.55111         3.17450
H         15.76076        39.37386         3.70120
O         20.60048        29.03837        -4.08378
H         21.30519        28.45874        -4.46710
O         28.25704        37.50348         0.22073
H         29.06040        37.03121         0.52578
O         25.38062        42.41703        -2.26146
H         26.10632        42.15976        -2.87103
O         16.10139        41.17324        -0.06550
H         15.29885        41.65575        -0.38692
O         22.79081        27.40859        -0.51444
H         23.46493        27.88816         0.01069
O         19.61251        26.25785        -4.16092
H         18.75800        26.49970        -4.59855
O         23.77918        55.56291        -1.59850
H         24.52374        56.15396        -1.87394
O         29.84732        43.07060         1.13242
H         30.10556        43.74052         1.80066
O         23.14833        31.83144        -4.10541
H         23.86080        32.42021        -4.43661
O         25.97169        24.17141        -3.24575
H         26.92177        23.90638        -3.31445
O         22.72600        19.38765         1.55543
H         23.42262        19.98098         1.90560
O         13.20065        28.81676        -3.47335
H         12.27841        28.56104        -3.72037
O          9.21043        28.99510         1.24263
H          8.64910        28.50950         1.88395
O         19.43153        25.86144        -0.52810
H         19.31657        25.09644         0.07447
O         17.66360        50.06424        -0.21962
H         18.24954        49.57391        -0.83430
O         28.17087        31.79895        -3.58968
H         28.18903        30.87799        -3.92450
O          7.83555        33.12060        -2.23684
H          7.77227        34.03610        -2.57839
O         32.16009        20.50097        -1.30570
H         31.31320        20.26929        -1.74287
O         17.07845        42.04055         3.36929
H         17.11319        41.11861         3.73233
O         19.27100        45.96352        -0.51850
H         18.75660        45.12173        -0.55194
O         26.87948        31.19080        -0.18818
H         26.11923        30.66432         0.13513
O         13.13261        19.96984        -2.92462
H         13.20434        20.83436        -3.38307
O         27.99984        48.64792        -2.35458
H         27.25328        49.23678        -2.63412
O         33.73873        32.87503        -2.75620
H         32.95249        32.92107        -3.35729
H          4.99268        31.18837         0.36235
H          5.04182        33.64375         0.42439
H          7.64653        26.83470         0.03037
H          6.34001        29.00320         0.27889
H          6.36904        35.67000         0.73058
H          7.60677        37.70719         0.98864
H          9.83688        22.65240        -0.96953
H          8.65890        24.74598        -0.72916
H          8.87607        39.82895         1.38386
H         10.20052        41.82245         2.07726
H         12.33724        18.23589        -0.99110
H         11.01728        20.53509        -0.98917
H         11.40913        43.78468         2.71337
H         12.75412        45.84237         3.32709
H         14.65025        14.35540         0.73483
H         13.48606        16.34484        -0.02978
H         13.83881        48.06628         2.68199
H         14.89784        50.22153         2.31944
H         17.08034        10.17406         1.49043
H         15.85355        12.28443         1.26626
H         16.00958        52.44017         1.80821
H         17.17021        54.64050         1.83973
H         19.47516         5.97908         1.82701
H         18.29533         8.08427         1.80135
H         18.43809        56.71932         2.12173
H         19.69095        58.75061         2.50059
H         22.85518         2.61443         1.36929
H         20.69547         3.83542         1.58719
H         23.16796        61.97759         3.20884
H         20.99586        60.76289         3.10811
H         25.01931         3.83758         1.56921
H         26.29583         5.89974         1.92617
H         26.35985        59.05397         1.11119
H         25.24256        60.93828         2.30809
H         26.85913         8.40722         3.87316
H         28.87759        10.07586         2.42565
H         28.71468        55.14238         0.17828
H         27.47663        57.13611         0.12894
H         30.14599        12.14926         1.77420
H         31.37010        14.28984         1.63264
H         31.35668        50.87580        -0.03266
H         30.05587        52.91045         0.19797
H         32.56556        16.44773         1.69659
H         33.72653        18.82997         2.05186
H         33.41656        46.09660         1.12984
H         32.70603        48.84156        -0.04823
H         35.13863        20.74482         1.25366
H         35.87117        23.01843         2.32072
H         36.45631        42.38896         0.11834
H         35.38062        44.65918        -0.40986
H         37.31779        25.22236         2.03942
H         38.63005        27.21486         1.62948
H         38.76063        38.17343         0.79398
H         37.63420        40.27114         0.31327
H         39.84882        29.33467         1.73690
H         41.04939        31.48733         1.97889
H         41.05606        33.95776         1.81187
H         39.91379        36.05697         1.26501
