         620
 CSIRO Nanostructure Databank - Neutral Graphene Oxide Data Set
C         23.03504        27.39667        -1.46116
C         23.03929        28.77082        -1.53324
C         23.04445        31.69431        -1.59004
C         23.04304        33.07386        -1.60709
C         23.03286        35.99906        -1.51573
C         23.02508        37.37920        -1.48241
C         23.02035        40.31162        -1.17999
C         23.02214        41.65654        -0.85341
C         23.15151        44.60818        -0.40032
C         23.18638        45.95224         0.02874
C         25.40056        24.56977        -0.90728
C         24.23538        25.25908        -1.13935
C         25.46377        27.38859        -1.09340
C         24.23973        26.67971        -1.23199
C         25.46573        28.81590        -1.19195
C         24.24547        29.51359        -1.39572
C         25.47328        31.67245        -1.33991
C         24.24798        30.95908        -1.44706
C         25.47423        33.10314        -1.38901
C         24.24677        33.81264        -1.50442
C         25.47286        35.97384        -1.52029
C         24.24362        35.26097        -1.51230
C         25.44577        37.39682        -1.57564
C         24.23276        38.12148        -1.50591
C         25.44031        40.27346        -1.12346
C         24.22911        39.57566        -1.31586
C         25.45040        41.61389        -0.64271
C         24.22042        42.34289        -0.53531
C         25.39393        44.27377         0.54687
C         24.21731        43.74339        -0.16616
C         25.48855        45.71816         0.87224
C         24.30027        46.51125         0.66024
C         25.36879        48.43001         1.73437
C         24.29709        47.88434         1.10467
C         27.87151        23.10936        -0.35318
C         27.86275        24.52018        -0.49052
C         26.64554        25.24721        -0.75237
C         27.91477        27.37558        -0.71499
C         26.67879        26.66749        -0.84997
C         27.92352        28.82262        -0.84809
C         26.70252        29.53503        -1.08006
C         27.93647        31.67445        -1.06870
C         26.70789        30.95516        -1.17077
C         27.94190        33.10691        -1.16039
C         26.71348        33.82457        -1.31864
C         27.97082        35.93316        -1.43209
C         26.72674        35.24501        -1.43181
C         27.99370        37.37321        -1.76560
C         26.70306        38.13207        -1.79019
C         27.98990        40.28497        -1.13957
C         26.71421        39.63163        -1.49664
C         27.94279        41.61174        -0.60623
C         26.70362        42.23317        -0.33145
C         27.97531        44.16297         0.77142
C         26.68709        43.46366         0.47053
C         27.94211        45.54840         1.37073
C         26.64988        46.28857         1.37806
C         27.94353        48.44871         2.16049
C         26.61600        47.67457         1.91232
C         27.98572        49.91932         2.28464
C         30.25147        23.11703         0.14389
C         29.03291        22.42905        -0.04087
C         30.29876        24.51496        -0.06431
C         29.09480        25.22660        -0.36601
C         30.38210        27.33641        -0.46208
C         29.11653        26.65493        -0.49579
C         30.37309        28.83206        -0.26599
C         29.12756        29.53964        -0.73426
C         30.39033        31.68263        -0.73046
C         29.15219        30.95572        -0.85411
C         30.37322        33.07946        -0.81564
C         29.17001        33.81622        -1.04877
C         30.41989        35.99225        -1.02791
C         29.18965        35.25215        -1.18408
C         30.46708        37.40822        -1.10297
C         29.27851        38.15750        -1.55740
C         30.43204        40.26859        -0.90786
C         29.21125        39.60067        -1.22717
C         30.41931        41.66436        -0.62347
C         29.17853        42.32199        -0.38089
C         30.35980        44.44999        -0.01426
C         29.19385        43.65216         0.09742
C         30.26307        45.85943         0.33209
C         29.22285        46.34766         1.28789
C         30.27670        48.70183         1.16475
C         29.21846        47.80215         1.69175
C         30.29842        50.07913         1.44035
C         29.09495        50.65692         2.01020
C         32.73096        20.33363         0.94713
C         31.54350        20.95243         0.65637
C         32.79834        23.17359         0.60896
C         31.44872        22.41005         0.64084
C         32.78035        24.53314         0.06830
C         31.57212        25.21156        -0.10768
C         32.86886        27.30483        -0.64905
C         31.57028        26.62639        -0.39352
C         32.89676        28.81091        -0.79594
C         31.63541        29.54777        -0.64873
C         32.91702        31.60607        -0.66279
C         31.65305        30.93697        -0.64661
C         32.90968        33.06302        -0.51979
C         31.62392        33.82415        -0.59803
C         32.85922        35.95807        -0.68795
C         31.66139        35.28758        -0.81440
C         32.86726        37.40633        -0.32082
C         31.64745        38.12718        -0.82612
C         32.89155        40.24608        -0.57884
C         31.66366        39.54276        -0.82320
C         32.87532        41.65295        -0.42332
C         31.63709        42.38224        -0.45235
C         32.88505        44.47648        -0.23067
C         31.61263        43.80319        -0.31774
C         33.06818        45.85067        -0.46064
C         31.14256        46.80040        -0.16559
C         32.35880        48.94592        -0.06096
C         31.26071        48.14632         0.31127
C         32.60300        50.20933         0.48972
C         31.45952        50.86396         1.07812
C         32.45801        52.95465         0.42018
C         31.46983        52.27827         1.12540
C         35.26724        18.83156         0.95557
C         35.22232        20.26649         1.41302
C         33.98029        21.01980         0.99369
C         35.30452        23.05449         0.56617
C         34.05524        22.39261         0.68957
C         35.36405        24.42828         0.04251
C         34.07659        25.17076        -0.24307
C         35.34564        27.32526        -0.26463
C         34.13845        26.63833        -0.32837
C         35.36951        28.77563        -0.38043
C         34.18157        29.49823        -0.58876
C         35.41024        31.63747        -0.51340
C         34.16435        30.92842        -0.59583
C         35.44537        33.06552        -0.58824
C         34.17744        33.77062        -0.82903
C         35.41253        35.97161        -0.56319
C         34.15184        35.26520        -0.83177
C         35.37544        37.39628        -0.54924
C         34.17229        38.11075        -0.58870
C         35.34393        40.25638        -0.30536
C         34.14740        39.54047        -0.53654
C         35.31010        41.62068         0.04410
C         34.08111        42.33229        -0.07494
C         35.21157        44.40821         0.59133
C         34.07372        43.74101         0.06771
C         35.24359        45.88550         0.75176
C         34.17448        46.60156         0.01017
C         35.27940        48.87123         0.22640
C         34.27737        47.98712        -0.24113
C         35.18022        50.29980         0.06870
C         33.84041        50.90411         0.13081
C         35.49454        53.42409        -0.40883
C         33.56395        52.26585        -0.11066
C         35.55255        54.80955        -0.29603
C         37.70460        18.79180         1.20067
C         36.42859        18.15028         0.93643
C         37.72778        20.25328         1.19358
C         36.51895        20.97894         1.09210
C         37.78407        23.07529         0.68843
C         36.54025        22.37022         0.80646
C         37.81007        24.51696         0.47349
C         36.59995        25.21794         0.21182
C         37.81851        27.34467         0.13140
C         36.59304        26.61754         0.01670
C         37.83166        28.77899        -0.00484
C         36.61349        29.48430        -0.22990
C         37.86849        31.61315        -0.28236
C         36.63562        30.90885        -0.34627
C         37.92585        33.06839        -0.69319
C         36.62634        33.80714        -0.52988
C         37.86565        35.95298        -0.24285
C         36.62164        35.24552        -0.48332
C         37.88502        37.35585        -0.18391
C         36.67079        38.09887        -0.55557
C         37.84959        40.28110         0.17729
C         36.65554        39.61143        -0.37715
C         37.78629        41.66847         0.55869
C         36.47591        42.28011         0.55521
C         38.03804        44.70774         1.20033
C         36.24464        43.58254         1.05532
C         37.87186        46.06160         0.88681
C         36.53994        46.71090         0.98368
C         37.78939        48.95886         0.51643
C         36.49777        48.21110         0.74935
C         37.70031        50.38879         0.12332
C         36.45040        51.07442         0.05106
C         37.77926        53.20783         0.24398
C         36.53506        52.53671        -0.01983
C         37.83854        54.63513         0.43224
C         36.70657        55.41621         0.19850
C         40.14590        15.92288         1.35207
C         38.95500        16.60889         1.26470
C         40.16046        18.75720         1.46394
C         38.88061        18.04611         1.26628
C         40.20492        20.25561         1.43837
C         38.95202        20.97392         1.17603
C         40.26986        23.05810         0.91467
C         38.99413        22.36295         0.90442
C         40.32676        24.47369         0.38794
C         39.02920        25.23358         0.49273
C         40.29257        27.37556         0.43216
C         39.04197        26.64284         0.35057
C         40.29276        28.79252         0.31312
C         39.05874        29.49682         0.09887
C         40.31679        31.65392         0.07830
C         39.07134        30.92157        -0.04304
C         40.31742        33.08699         0.05190
C         39.11783        33.81068        -0.15830
C         40.31294        35.93951         0.14217
C         39.09170        35.21350        -0.05884
C         40.30776        37.37913         0.22435
C         39.07008        38.09849         0.12126
C         40.24107        40.24743         0.71626
C         39.02442        39.52254         0.30645
C         40.25939        41.71899         0.55903
C         39.01236        42.42946         0.66132
C         40.22732        44.58654         0.24540
C         39.08352        43.88137         0.71241
C         40.23987        46.00089         0.18508
C         39.03052        46.76247         0.40594
C         40.24153        48.88146         0.04646
C         39.02613        48.17549         0.28371
C         40.22851        50.31943         0.02689
C         38.96855        51.06667         0.06312
C         40.25526        53.22755         0.09967
C         38.99162        52.46874         0.18058
C         40.30396        54.61482         0.59723
C         39.09375        55.29644         0.79073
C         40.32795        57.27600         1.49451
C         39.12594        56.63473         1.26508
C         42.64663        15.93270         1.26511
C         41.41990        16.57730         1.26177
C         42.69223        18.79988         0.96143
C         41.40121        18.03561         1.05827
C         42.69869        20.26871         1.16968
C         41.49238        20.95440         1.24577
C         42.72500        23.11286         1.48132
C         41.45095        22.38468         1.15471
C         42.70469        24.56856         1.11153
C         41.55137        25.24568         0.82321
C         42.71382        27.43718         0.84002
C         41.52117        26.69660         0.69832
C         42.74145        28.84196         0.64287
C         41.51992        29.52633         0.40342
C         42.76033        31.68267         0.46438
C         41.52549        30.95819         0.30296
C         42.74986        33.08904         0.44156
C         41.53960        33.80281         0.25646
C         42.78556        35.95371         0.16286
C         41.53088        35.23610         0.23428
C         42.77602        37.40218         0.11596
C         41.53981        38.06986         0.30050
C         42.79521        40.26860         0.39714
C         41.56343        39.50171         0.62417
C         42.74799        41.68015         0.30621
C         41.47915        42.37455         0.34780
C         42.71801        44.55681        -0.23238
C         41.42783        43.79670        -0.05456
C         42.68963        46.02488        -0.18465
C         41.48232        46.70917        -0.06921
C         42.70727        48.86598        -0.02579
C         41.47057        48.16250        -0.05669
C         42.68861        50.26963         0.12225
C         41.47286        50.98844         0.06048
C         42.79939        53.16090         0.39364
C         41.54587        52.46308         0.02306
C         42.79676        54.55210         0.69006
C         41.54982        55.25714         0.83369
C         42.81024        57.26378         1.50507
C         41.55848        56.61036         1.27395
C         43.87142        16.64912         1.18047
C         45.18503        18.77875         1.01133
C         43.94429        18.03321         1.08095
C         45.17567        20.21182         0.93526
C         43.95884        20.96347         1.05656
C         45.20208        23.08329         0.92305
C         43.98871        22.37944         1.07695
C         45.25336        24.54175         1.08509
C         43.98000        25.27079         1.36246
C         45.23902        27.47397         1.00504
C         43.96796        26.76089         1.20592
C         45.23638        28.83285         0.86503
C         43.99062        29.56991         0.71820
C         45.26982        31.70341         0.60268
C         44.00276        30.96650         0.63876
C         45.27290        33.10710         0.46794
C         44.00397        33.85724         0.77919
C         45.22937        35.90741        -0.12469
C         43.98063        35.25508         0.22869
C         45.23667        37.45689        -0.21930
C         43.98670        38.14546         0.08966
C         45.26941        40.27645         0.23062
C         44.01356        39.56411         0.23754
C         45.24028        41.72362         0.26422
C         43.99291        42.38658         0.20538
C         45.26164        44.62481         0.11311
C         43.96290        43.85844         0.20013
C         45.25161        46.02844        -0.31450
C         43.94685        46.73062        -0.63954
C         45.17159        48.84326        -0.26175
C         43.97180        48.18006        -0.22745
C         45.26239        50.23448         0.20092
C         43.95296        50.97560         0.38935
C         45.25038        53.11131         0.52674
C         43.99428        52.44454         0.41168
C         45.26079        54.49950         0.84433
C         44.03236        55.21305         0.96980
C         43.99608        56.59691         1.35010
C         47.61260        18.79558         0.77936
C         46.42330        18.10794         0.96368
C         47.63399        20.19971         0.65305
C         46.40695        20.91907         0.77640
C         47.64828        23.04476         0.54012
C         46.41506        22.35169         0.73032
C         47.60468        24.53970         0.31612
C         46.42601        25.23879         0.96164
C         47.73953        27.44276         0.80870
C         46.51334        26.71985         1.33853
C         47.75304        28.80642         0.71061
C         46.52376        29.58422         1.12598
C         47.72357        31.68798         0.44122
C         46.50346        31.00884         0.64506
C         47.72832        33.10252         0.26280
C         46.49597        33.81804         0.30115
C         47.71456        35.96380        -0.03305
C         46.50710        35.23489         0.10427
C         47.72777        37.42058        -0.07731
C         46.52080        38.14776        -0.02834
C         47.76778        40.24739         0.39641
C         46.48649        39.55565         0.18531
C         47.76249        41.77536         0.38142
C         46.47649        42.47567         0.20555
C         47.73998        44.58012        -0.19394
C         46.51155        43.85994         0.02151
C         47.72033        45.98359        -0.38408
C         46.44795        46.67927        -0.47488
C         47.71649        48.91111        -0.61837
C         46.41737        48.14970        -0.68132
C         47.71640        50.34278        -0.25641
C         46.50356        51.02284         0.01744
C         47.71554        53.22818         0.01106
C         46.47533        52.40603         0.26646
C         47.70795        54.49340         0.83282
C         46.54573        55.11005         1.13752
C         50.06598        20.24137         0.13492
C         48.86937        20.91433         0.40557
C         50.10813        23.06344         0.13001
C         48.85551        22.35295         0.38074
C         50.14019        24.44522         0.14776
C         48.94067        25.18961         0.58981
C         50.24291        27.38553         0.31410
C         48.99975        26.68080         0.69993
C         50.21732        28.83192         0.29263
C         48.98648        29.53987         0.45671
C         50.18845        31.68446         0.18185
C         48.96859        30.95332         0.36998
C         50.18415        33.09402         0.09503
C         48.95766        33.82356         0.09102
C         50.16973        35.97304        -0.40454
C         48.93608        35.24117        -0.05283
C         50.21401        37.44081        -0.28662
C         48.99652        38.13778        -0.08876
C         50.24804        40.26707         0.05471
C         49.02411        39.54687         0.08536
C         50.24194        41.73593         0.03600
C         49.01980        42.46409         0.04468
C         50.20980        44.57893        -0.38967
C         48.99130        43.86172        -0.19328
C         50.19797        46.00405        -0.51668
C         48.95537        46.71838        -0.49771
C         50.19232        48.85357        -0.41817
C         48.97489        48.14155        -0.50862
C         50.19660        50.28319        -0.20559
C         48.96925        51.02121        -0.12426
C         50.22280        53.07472         0.23873
C         48.99345        52.42489         0.09573
C         51.26999        20.92712        -0.09473
C         52.60830        23.03273        -0.14971
C         51.33292        22.31638        -0.07875
C         52.63643        24.44549        -0.17063
C         51.34074        25.19627        -0.34450
C         52.65853        27.31106        -0.12993
C         51.39690        26.65541         0.04056
C         52.63386        28.78710        -0.41428
C         51.41333        29.54886         0.04620
C         52.64868        31.69166        -0.20529
C         51.42531        30.95824         0.02850
C         52.70479        33.07423        -0.19341
C         51.48382        33.85073         0.22364
C         52.73927        35.98231        -0.35104
C         51.46501        35.22626        -0.39958
C         52.72412        37.39888        -0.36463
C         51.46084        38.12462        -0.27565
C         52.74957        40.23573         0.02798
C         51.45948        39.53731        -0.09554
C         52.74178        41.77538        -0.00854
C         51.44816        42.46268        -0.14059
C         52.68083        44.58169        -0.54647
C         51.44495        43.86459        -0.35853
C         52.65348        45.97977        -0.74081
C         51.43092        46.71442        -0.65170
C         52.65262        48.87934        -0.49447
C         51.43428        48.14975        -0.55834
C         52.67750        50.24215        -0.11851
C         51.42684        50.96911        -0.01409
C         51.41628        52.36142         0.20921
C         55.04474        23.02509        -0.13622
C         53.83693        22.33754        -0.12321
C         55.08422        24.42541        -0.17261
C         53.86610        25.14842        -0.17565
C         55.14072        27.31054        -0.26768
C         53.85967        26.60914        -0.20158
C         55.18511        28.72805        -0.25266
C         53.92175        29.47300        -0.05737
C         55.18308        31.52401        -0.80485
C         53.92787        30.95076        -0.17821
C         55.09797        33.06154        -1.00961
C         53.93478        33.80045        -0.40330
C         55.21481        35.95802        -0.46816
C         53.93299        35.23024        -0.39090
C         55.20369        37.42808        -0.60417
C         53.97550        38.11858        -0.45103
C         55.19355        40.27050        -0.46765
C         53.99314        39.54381        -0.33961
C         55.18616        41.71481        -0.50202
C         53.97277        42.46246        -0.41450
C         55.15009        44.58865        -0.82591
C         53.93286        43.86793        -0.61374
C         55.18857        45.98651        -0.91018
C         53.90654        46.68984        -1.03206
C         55.18965        48.87414        -0.51202
C         53.91833        48.23470        -0.85963
C         55.12951        50.18476        -0.00010
C         53.92648        50.86567         0.12849
C         57.55904        24.49866        -0.82128
C         56.42033        25.12397        -0.04957
C         57.59175        27.31274        -0.38465
C         56.35768        26.60841        -0.30278
C         57.62401        28.72776        -0.22466
C         56.40745        29.42661        -0.17296
C         57.65541        31.67192         0.06700
C         56.37843        30.91748        -0.08212
C         57.66095        33.13959        -0.27707
C         56.50039        33.72533        -1.08805
C         57.67699        35.97267        -1.32988
C         56.48061        35.21882        -0.78023
C         57.66500        37.44086        -0.97427
C         56.43815        38.12415        -0.76584
C         57.62869        40.28807        -0.86251
C         56.43368        39.57571        -0.71364
C         57.64283        41.71266        -0.80078
C         56.40606        42.39582        -0.73978
C         57.72802        44.58749        -0.99219
C         56.38635        43.82736        -1.01383
C         57.66414        46.03193        -0.74257
C         56.42365        46.72447        -0.83323
C         57.66341        48.81102        -0.40974
C         56.42004        48.14773        -0.62338
C         58.70505        25.20393        -1.03022
C         60.02779        27.31561        -0.80043
C         58.79842        26.59987        -0.69792
C         60.11874        28.64625        -0.48457
C         58.93391        29.40575        -0.05939
C         60.18909        31.71163        -0.18992
C         58.96912        30.93143         0.13637
C         60.19647        33.03841        -0.42534
C         58.96762        33.86905        -0.44445
C         60.13435        35.99171        -1.10547
C         58.98334        35.25932        -0.98692
C         60.07860        37.40424        -1.30849
C         58.89734        38.12245        -1.14753
C         60.08610        40.28619        -0.55735
C         58.92412        39.62514        -1.26241
C         60.07318        41.61951        -0.35696
C         58.89574        42.42320        -0.66234
C         60.09924        44.58398        -0.28111
C         58.93490        43.82640        -0.62540
C         60.07327        45.95510        -0.22105
C         58.86340        46.70311        -0.41514
C         58.84671        48.11767        -0.29121
O         56.18101        35.51559         0.59876
O         47.01039        48.64694        -1.91733
O         34.34755        52.94720        -1.03892
O         34.17600        34.48462        -2.10883
O         37.17865        48.85172         1.86973
O         41.90598        18.44605        -0.25875
O         27.24971        47.78750         3.24110
O         37.10171        44.09091         2.03128
O         32.00486        23.04492         1.83938
O         32.25007        33.50544         0.72606
O         28.11900        44.37522         2.22209
O         59.10445        30.05393         1.27533
O         43.95691        26.11003         2.58003
O         54.46479        33.29132        -2.28024
O         36.89071        38.99425        -1.69718
O         50.76184        35.39332        -1.65385
O         45.18079        36.61865        -1.41163
O         40.90418        39.77004         1.92764
O         49.15484        25.79105         1.89848
O         32.03105        46.45003        -1.20057
O         26.64940        39.10219        -2.87319
O         40.94197        53.03405        -1.19809
O         52.87359        41.03287         1.25368
O         47.83007        41.02191         1.64305
O         54.01813        30.30274         1.14587
O         29.75190        46.76734         2.58736
O         53.86271        47.59444        -2.17508
O         32.89066        27.92364        -1.99172
O         25.81571        43.38251         1.63446
O         57.10773        44.17564        -2.24778
O         42.03370        43.99162        -1.39525
O         44.53865        44.45105         1.40847
O         34.81410        24.50875        -1.34288
O         40.22387        19.48959         2.72536
O         33.26521        48.53555        -1.05357
O         56.75537        31.45123         1.20901
O         44.68172        50.40620         1.54254
O         35.63214        46.36733         2.07181
O         28.84912        37.73123        -2.89623
O         58.18792        33.90288         0.82797
O         51.13684        25.27089        -1.82204
H         51.10691        24.34859        -2.15748
O         30.34465        28.96218         1.21854
H         30.23198        29.91551         1.42611
O         59.10534        39.89987        -2.69273
H         59.04322        40.87134        -2.81620
O         43.87731        46.69451        -2.10849
H         43.01140        47.06688        -2.37916
O         56.90802        33.50047        -2.46322
H         56.03607        33.40829        -2.95159
O         42.75584        23.11876         2.95612
H         43.39320        23.80895         3.24180
O         47.63309        53.66354        -1.39967
H         46.79700        54.16751        -1.49805
O         40.52477        24.30366        -1.07026
H         39.70310        23.91111        -1.43615
O         46.60318        29.67261         2.59092
H         46.68926        28.74241         2.92452
O         35.15073        20.20820         2.88686
H         35.04511        21.12682         3.21397
O         46.61366        26.79280         2.80025
H         45.74378        26.47072         3.14831
O         51.64444        34.11356         1.66114
H         51.80190        33.25743         2.11389
O         32.75235        37.42152         1.16491
H         32.00121        36.83838         1.40850
O         38.15276        33.03031        -2.15920
H         37.32136        32.71762        -2.57670
O         55.26509        30.96061        -2.13547
H         54.76888        31.61100        -2.70625
O         52.59382        28.86849        -1.88483
H         51.89103        28.26041        -2.20008
O         56.78451        24.97056         1.37308
H         57.58689        25.51281         1.53130
O         57.59524        35.98888        -2.78724
H         57.50348        35.04255        -3.07095
O         44.00441        34.01524         2.25036
H         44.06259        33.11739         2.64245
O         47.40542        24.72608        -1.13191
H         46.61937        24.20199        -1.39592
H         22.09415        26.83916        -1.57333
H         22.08827        29.29118        -1.70483
H         22.08359        31.17169        -1.67912
H         22.08224        33.59346        -1.71413
H         22.06884        35.47428        -1.50867
H         22.05818        37.89742        -1.44169
H         22.05443        39.81967        -1.35548
H         22.06191        42.18618        -0.78292
H         22.25372        44.24801        -0.92188
H         22.30679        46.58735        -0.14980
H         25.35963        23.47495        -0.84099
H         23.28448        24.71923        -1.25346
H         25.31738        49.45677         2.12206
H         23.38034        48.47530         0.96266
H         26.94333        22.53408        -0.46078
H         27.11156        50.41414         2.73141
H         28.99010        21.34055         0.09814
H         29.06736        51.73805         2.20601
H         32.72363        19.24233         1.07125
H         30.65017        20.34305         0.46328
H         32.38420        54.03785         0.25608
H         30.63735        52.83634         1.57345
H         34.33319        18.30396         0.71933
H         34.69129        55.40857        -0.61699
H         36.42381        17.08462         0.66634
H         36.74004        56.50751         0.30458
H         40.12944        14.82545         1.42772
H         38.02071        16.03003         1.25666
H         40.33787        58.31443         1.85568
H         38.18891        57.17413         1.45772
H         42.68472        14.83802         1.36393
H         42.80614        58.31758         1.81934
H         44.79660        16.05812         1.22867
H         44.93636        57.13185         1.53878
H         48.54632        18.22036         0.73325
H         46.45850        17.01383         1.04690
H         48.65765        54.98604         1.08380
H         46.57155        56.07856         1.65659
H         50.09031        19.14421         0.10848
H         50.26578        54.16490         0.36106
H         52.17514        20.33025        -0.26812
H         52.35800        52.91209         0.32760
H         55.98198        22.45376        -0.09003
H         53.85545        21.24102        -0.07496
H         56.05233        50.70757         0.28383
H         53.95868        51.90422         0.48151
H         57.51783        23.43294        -1.08922
H         57.68388        49.90493        -0.31856
H         59.58193        24.71607        -1.48274
H         60.93158        26.76551        -1.10173
H         61.09915        29.14203        -0.48804
H         61.14777        31.17265        -0.16993
H         61.15713        33.52973        -0.64014
H         61.12197        35.52759        -0.96581
H         61.02178        37.94199        -1.47908
H         60.98192        39.69796        -0.31013
H         60.95725        42.11335         0.07048
H         61.04286        44.06213        -0.07219
H         60.99111        46.50738         0.02666
H         59.78677        48.65302        -0.09684
