         600
 CSIRO Nanostructure Databank - Neutral Graphene Oxide Data Set
C         22.98698        27.53329        -0.66452
C         22.92545        28.86461        -0.41360
C         22.95099        31.77750         0.31377
C         22.95680        33.13318         0.59655
C         22.98168        36.04654         0.86818
C         22.99276        37.42469         0.82801
C         23.04212        40.38577         0.75120
C         22.98353        41.67829         0.37314
C         22.97414        44.51611        -0.50173
C         22.97410        45.90971        -0.44623
C         25.43142        24.70170        -0.93959
C         24.24765        25.40695        -0.95023
C         25.45632        27.46967        -0.48809
C         24.24075        26.81165        -0.74210
C         25.47961        28.93921        -0.42500
C         24.14077        29.69361        -0.40376
C         25.39207        31.72957         0.36052
C         24.15509        31.07159         0.13182
C         25.39911        33.13134         0.62727
C         24.17102        33.84912         0.69697
C         25.42054        35.98809         0.72927
C         24.18289        35.29430         0.79309
C         25.43331        37.41290         0.61591
C         24.20789        38.14199         0.66650
C         25.44048        40.21061         0.22848
C         24.23384        39.56792         0.52934
C         25.44295        41.71669         0.13128
C         24.11657        42.26457        -0.44522
C         25.42048        44.47342        -0.43133
C         24.16427        43.78478        -0.44600
C         25.42339        45.90368        -0.35774
C         24.18871        46.61722        -0.33203
C         25.39144        48.71472        -0.02416
C         24.20610        48.03970        -0.19106
C         27.96982        23.26255        -1.02670
C         27.92142        24.63241        -0.65114
C         26.66884        25.34043        -0.64854
C         27.88315        27.37893         0.05211
C         26.67281        26.73499        -0.36723
C         27.79342        28.77572         0.52410
C         26.64323        29.60445         0.16384
C         27.87227        31.67223         0.70016
C         26.63469        30.97811         0.40639
C         27.85439        33.09063         0.84027
C         26.65111        33.82816         0.79082
C         27.87798        35.99440         0.77361
C         26.66101        35.26780         0.79154
C         27.90649        37.38879         0.52927
C         26.67027        38.10631         0.44031
C         27.92715        40.21509         0.05576
C         26.67084        39.50798         0.21418
C         27.94123        41.59766        -0.21221
C         26.65402        42.27635        -0.61239
C         27.89332        44.46993        -0.43952
C         26.66446        43.77527        -0.45636
C         27.87666        45.89577        -0.41022
C         26.66173        46.61810        -0.30311
C         27.86494        48.74018         0.22105
C         26.64653        48.04091        -0.06086
C         27.92782        50.04559         0.71337
C         30.39152        23.24169        -0.80774
C         29.16385        22.59281        -1.11406
C         30.37272        24.59266        -0.37396
C         29.13157        25.30152        -0.30915
C         30.35219        27.33883         0.46998
C         29.10296        26.68283         0.09933
C         30.37155        28.76885         0.68410
C         29.11143        29.51149         0.83501
C         30.35901        31.66408         0.73338
C         29.10501        30.97377         0.75237
C         30.39026        33.07804         0.84754
C         29.12585        33.77551         1.10315
C         30.41523        35.97894         0.75579
C         29.14288        35.30947         1.05370
C         30.39868        37.37665         0.50523
C         29.15619        38.08870         0.42660
C         30.39668        40.19743         0.04798
C         29.15797        39.49495         0.19631
C         30.38524        41.58484        -0.21929
C         29.16447        42.31468        -0.32296
C         30.38298        44.49322        -0.47100
C         29.15270        43.75239        -0.45137
C         30.40809        45.87638        -0.42303
C         29.14596        46.62173        -0.47288
C         30.39951        48.60878         0.56843
C         29.14795        48.08741        -0.10881
C         30.39094        50.11234         0.69405
C         29.15779        50.73060         0.85728
C         32.88364        20.56663        -1.62182
C         31.69462        21.24505        -1.49310
C         32.84828        23.15663        -0.46534
C         31.64168        22.54238        -0.92310
C         32.81427        24.50303         0.02170
C         31.60253        25.22975         0.02471
C         32.81085        27.26489         0.86214
C         31.55411        26.60570         0.45889
C         32.82782        28.79047         0.93305
C         31.56395        29.50234         0.71770
C         32.83399        31.63720         0.72989
C         31.58662        30.93293         0.71042
C         32.84210        33.06436         0.74565
C         31.60929        33.79416         0.81469
C         32.87228        35.93366         0.64557
C         31.62109        35.23798         0.76895
C         32.87537        37.35615         0.47005
C         31.64244        38.07841         0.36549
C         32.89430        40.18312         0.06882
C         31.64510        39.48093         0.14715
C         32.92180        41.58167        -0.16309
C         31.66124        42.26517        -0.48926
C         32.93412        44.48881        -0.36952
C         31.66752        43.76978        -0.63200
C         32.93543        45.88276        -0.30861
C         31.68508        46.66297        -0.63185
C         32.87328        48.70837         0.20867
C         31.67992        48.02557         0.03496
C         32.87662        50.11903         0.56448
C         31.65053        50.81329         0.76482
C         32.88282        52.89897         1.04699
C         31.68980        52.20824         1.02501
C         35.39017        19.08009        -1.76276
C         35.35756        20.41780        -1.32806
C         34.09760        21.13444        -1.15218
C         35.34025        22.99558        -0.09429
C         34.06709        22.40831        -0.55685
C         35.34773        24.39609         0.47308
C         34.01879        25.09623         0.75121
C         35.29333        27.30527         0.60000
C         34.09812        26.59649         0.61551
C         35.30387        28.76246         0.66603
C         34.10251        29.49236         0.74134
C         35.31130        31.63519         0.73442
C         34.07843        30.91937         0.69905
C         35.30066        33.05336         0.80765
C         34.08667        33.77210         0.76538
C         35.34434        35.92393         0.63280
C         34.09518        35.21690         0.70886
C         35.34926        37.34015         0.45868
C         34.11407        38.05471         0.37707
C         35.36183        40.18084         0.15185
C         34.12467        39.47139         0.20547
C         35.36833        41.60000         0.02082
C         34.13562        42.30772        -0.14339
C         35.37472        44.45432        -0.09028
C         34.14441        43.74802        -0.21665
C         35.37972        45.88003        -0.04248
C         34.14938        46.59908        -0.10614
C         35.36379        48.72103         0.22440
C         34.13953        48.01946         0.05503
C         35.36041        50.13436         0.45325
C         34.11362        50.82611         0.61793
C         35.36097        52.96347         0.81094
C         34.11477        52.23634         0.82675
C         35.34293        54.39946         0.62723
C         37.83192        19.06384        -1.79958
C         36.59114        18.42075        -1.99310
C         37.83104        20.41299        -1.33822
C         36.59454        21.08799        -1.09846
C         37.80577        23.11456        -0.37671
C         36.60261        22.41889        -0.58713
C         37.79657        24.50659         0.01350
C         36.58595        25.18864         0.30459
C         37.77607        27.34363         0.32960
C         36.55803        26.60060         0.42735
C         37.75976        28.75959         0.41885
C         36.55293        29.47680         0.60470
C         37.78424        31.63940         0.76337
C         36.55442        30.91349         0.71735
C         37.82386        33.03232         0.82751
C         36.56643        33.78673         1.15900
C         37.80719        35.90844         0.61590
C         36.57885        35.22792         0.72815
C         37.82088        37.32871         0.44573
C         36.58914        38.04354         0.38278
C         37.83260        40.17277         0.20576
C         36.59645        39.46645         0.24708
C         37.83835        41.59770         0.12160
C         36.60645        42.31239         0.03979
C         37.84462        44.45057         0.05687
C         36.61098        43.73766        -0.00222
C         37.84669        45.87725         0.09255
C         36.61279        46.59237         0.07199
C         37.83909        48.72740         0.32252
C         36.60555        48.01403         0.18184
C         37.82361        50.12561         0.53098
C         36.59538        50.83597         0.59625
C         37.84017        53.01165         0.89341
C         36.57475        52.26477         0.79058
C         37.78888        54.52798         0.73386
C         36.47634        55.12587         0.46790
C         40.34483        16.42205        -2.76510
C         39.14219        17.06130        -2.54557
C         40.30954        19.06042        -1.75205
C         39.09149        18.38690        -2.03658
C         40.30114        20.41192        -1.26918
C         39.06147        21.09373        -1.07959
C         40.28088        23.12732        -0.41271
C         39.05088        22.44703        -0.63552
C         40.27419        24.52142        -0.09202
C         39.03304        25.22753         0.03772
C         40.27587        27.34287         0.24429
C         39.02768        26.63828         0.19779
C         40.29993        28.76504         0.30168
C         39.01672        29.54404         0.11850
C         40.30991        31.63027         0.61268
C         39.05720        30.84445         0.91235
C         40.29840        33.03994         0.62148
C         39.05346        33.76091         0.72868
C         40.29143        35.89221         0.50729
C         39.05808        35.17863         0.64760
C         40.29788        37.31802         0.39461
C         39.06140        38.03585         0.36719
C         40.30698        40.16810         0.20756
C         39.06789        39.45559         0.25998
C         40.31128        41.59187         0.14772
C         39.07657        42.30948         0.11784
C         40.31869        44.44758         0.09592
C         39.07949        43.73349         0.09133
C         40.32080        45.87043         0.10795
C         39.08450        46.59325         0.14872
C         40.33142        48.72636         0.22028
C         39.08424        48.00800         0.25607
C         40.34771        50.13211         0.35797
C         39.11663        50.81639         0.89312
C         40.30021        52.98052         0.48141
C         39.11358        52.29758         0.63309
C         40.29051        54.46359         0.60218
C         39.02939        55.20791         0.17622
C         40.30469        57.34450         0.39252
C         39.11910        56.68464         0.46464
C         42.82373        16.41698        -2.68493
C         41.57358        17.06927        -2.47404
C         42.79015        19.04686        -1.64065
C         41.55718        18.39453        -1.95783
C         42.77419        20.38113        -1.12589
C         41.52552        21.07054        -0.97353
C         42.75011        23.09958        -0.26661
C         41.51694        22.43111        -0.54833
C         42.74735        24.49067         0.03990
C         41.50570        25.20582         0.07914
C         42.74829        27.31499         0.36866
C         41.50579        26.62073         0.25636
C         42.75458        28.74132         0.39171
C         41.50796        29.45945         0.36712
C         42.73290        31.62831         0.35995
C         41.51557        30.92111         0.43369
C         42.75217        33.03353         0.43000
C         41.52830        33.75655         0.50832
C         42.76460        35.89288         0.32904
C         41.52930        35.18399         0.46238
C         42.77058        37.31467         0.26500
C         41.53314        38.02758         0.29308
C         42.78112        40.16489         0.15359
C         41.54159        39.45356         0.21678
C         42.78606        41.59039         0.11822
C         41.55098        42.30364         0.12083
C         42.79591        44.43570         0.10129
C         41.55320        43.72851         0.09543
C         42.79050        45.86887         0.04750
C         41.56262        46.58036         0.05579
C         42.77832        48.72401        -0.14883
C         41.55550        48.01145         0.03370
C         42.77255        50.16720        -0.09135
C         41.55571        50.86502         0.20675
C         42.79252        53.02179         0.19422
C         41.56621        52.29426         0.32167
C         42.82506        54.45224         0.22557
C         41.59385        55.20674         0.49942
C         42.74815        57.30359        -0.08575
C         41.55631        56.65255         0.22538
C         44.00679        17.05133        -2.39445
C         45.25371        19.03181        -1.50687
C         44.02607        18.37712        -1.86366
C         45.21121        20.28957        -0.87240
C         43.98841        21.00828        -0.74424
C         45.18348        23.04521         0.06663
C         43.98211        22.38340        -0.29877
C         45.20610        24.44271         0.29697
C         43.97916        25.17303         0.25507
C         45.21525        27.30167         0.52226
C         43.98105        26.59810         0.39994
C         45.20712        28.73119         0.52025
C         43.99032        29.42816         0.40598
C         45.19168        31.59449         0.76094
C         44.02315        30.90126         0.07741
C         45.23030        33.05946         0.40860
C         44.00940        33.75571         0.36513
C         45.23737        35.87953         0.16616
C         44.00144        35.17714         0.27891
C         45.24105        37.30722         0.10830
C         44.00963        38.02586         0.16555
C         45.25931        40.16491         0.06245
C         44.01729        39.45077         0.13042
C         45.27125        41.58533         0.07452
C         44.02747        42.30908         0.11396
C         45.30323        44.47059         0.40185
C         44.01988        43.72258         0.13436
C         45.27446        45.90201        -0.06474
C         44.03136        46.58399        -0.10333
C         45.22862        48.68593        -0.63257
C         43.98163        47.99071        -0.31274
C         45.21436        50.19803        -0.57245
C         43.97440        50.90341        -0.20791
C         45.26083        53.04077        -0.18468
C         44.01301        52.30935        -0.04660
C         45.25841        54.46113        -0.20770
C         44.00468        55.17975        -0.05990
C         43.94789        56.59266        -0.19425
C         47.71211        19.10760        -1.63954
C         46.53303        18.49598        -1.91941
C         47.78149        20.22337        -0.68500
C         46.44332        20.84677        -0.28751
C         47.73344        23.00180         0.38193
C         46.41918        22.25419         0.23204
C         47.69430        24.47503         0.46404
C         46.45700        25.15479         0.48663
C         47.69157        27.30014         0.64722
C         46.45334        26.58464         0.56902
C         47.69727        28.72784         0.58783
C         46.46713        29.45452         0.54166
C         47.69844        31.57485         0.38806
C         46.48257        30.85826         0.51823
C         47.69875        33.00216         0.22569
C         46.46011        33.73570         0.25297
C         47.70177        35.85391        -0.05577
C         46.46484        35.15605         0.10926
C         47.70493        37.27945        -0.09723
C         46.47753        38.01032        -0.00283
C         47.73012        40.13863        -0.12474
C         46.49004        39.43541        -0.02095
C         47.74434        41.56517        -0.13866
C         46.51961        42.30021        -0.02119
C         47.76182        44.42164        -0.19235
C         46.54338        43.71650        -0.01197
C         47.77583        45.85886        -0.29136
C         46.50770        46.59380        -0.28507
C         47.75189        48.71226        -0.93724
C         46.50109        47.96142        -0.54934
C         47.77296        50.12338        -0.35929
C         46.49616        50.88053        -0.23417
C         47.72789        53.04074        -0.39464
C         46.50313        52.35547        -0.27635
C         47.69053        54.45525        -0.42725
C         46.49209        55.13990        -0.33717
C         50.25393        20.50618        -0.99030
C         49.01737        21.04879        -0.58269
C         50.19161        23.11930         0.01340
C         48.98760        22.36198        -0.07777
C         50.15279        24.46182         0.50723
C         48.92949        25.16939         0.61966
C         50.15407        27.33120         0.86110
C         48.93248        26.60385         0.75633
C         50.17134        28.72928         0.66759
C         48.93195        29.43482         0.54574
C         50.15676        31.55087         0.21742
C         48.92718        30.85243         0.38851
C         50.13001        32.93621        -0.05950
C         48.91781        33.68037        -0.03623
C         50.13159        35.83745        -0.38266
C         48.92402        35.12379        -0.18605
C         50.15760        37.25284        -0.33583
C         48.93951        37.98426        -0.20644
C         50.20560        40.10631        -0.27368
C         48.95583        39.41124        -0.21410
C         50.21573        41.54028        -0.28281
C         48.98812        42.26278        -0.23776
C         50.22421        44.39429        -0.43011
C         48.98910        43.69309        -0.29655
C         50.23353        45.82060        -0.46420
C         48.99210        46.54727        -0.43722
C         50.20318        48.70670        -0.50846
C         49.02875        47.99039        -0.58539
C         50.24261        50.17039        -0.59849
C         49.02723        50.89477        -0.51287
C         50.22840        52.98980        -0.60726
C         48.99825        52.30691        -0.50078
C         51.43514        21.22236        -0.86140
C         52.68765        23.25000        -0.10905
C         51.44117        22.53348        -0.34533
C         52.68854        24.50164         0.56124
C         51.40517        25.09886         0.90881
C         52.71690        27.33000         1.07283
C         51.41619        26.63733         1.15634
C         52.66545        28.75517         0.83505
C         51.42648        29.43950         0.61795
C         52.63149        31.55371         0.23281
C         51.40567        30.83587         0.32293
C         52.65803        32.94793        -0.13852
C         51.38078        33.59525        -0.45973
C         52.66786        35.82841        -0.61518
C         51.38138        35.10885        -0.65774
C         52.63384        37.22745        -0.58487
C         51.40819        37.96286        -0.42498
C         52.72538        40.09627        -0.09664
C         51.42184        39.37124        -0.34263
C         52.68926        41.55670        -0.45482
C         51.46359        42.25023        -0.40980
C         52.68281        44.38588        -0.65262
C         51.45660        43.68098        -0.50262
C         52.68794        45.81714        -0.65332
C         51.46615        46.51359        -0.53090
C         52.78600        48.71627        -0.51778
C         51.47682        47.97716        -0.34743
C         52.83367        50.23810        -0.61452
C         51.45904        50.88495        -0.68247
C         51.42442        52.28871        -0.68658
C         55.08365        23.16596         0.12708
C         53.92791        22.65713        -0.43671
C         55.05065        24.33935         0.90577
C         53.89109        25.17406         0.95784
C         55.27916        27.34480         1.16079
C         53.91771        26.61010         1.19380
C         55.13368        28.86946         1.25385
C         53.87246        29.50507         0.87523
C         55.00709        31.72395         0.79021
C         53.82767        30.87787         0.57818
C         55.11596        32.97029        -0.01494
C         53.84741        33.68243        -0.27197
C         55.16908        35.76369        -0.58892
C         53.89446        35.08001        -0.57153
C         55.19915        37.18837        -0.94966
C         53.86085        37.97402        -0.89647
C         55.13722        40.08244        -0.82378
C         53.93483        39.40216        -0.65606
C         55.14802        41.52977        -0.81582
C         53.91147        42.24312        -0.68643
C         55.12452        44.36445        -1.04717
C         53.90825        43.66722        -0.79247
C         55.11011        45.79207        -1.17365
C         53.92227        46.52157        -0.90080
C         55.03626        48.59978        -1.59950
C         53.94439        47.93929        -1.00351
C         54.84912        49.97461        -2.04606
C         53.76711        50.70207        -1.70513
C         57.45159        25.06775         3.48288
C         56.54978        25.48398         2.48035
C         57.33303        27.72265         2.66399
C         56.33806        26.84721         2.17138
C         57.53481        29.05059         1.97064
C         56.22104        29.64760         1.54991
C         57.50669        31.85908         1.32538
C         56.21385        31.12204         1.40901
C         57.58577        33.12746         0.71734
C         56.42102        33.70306         0.00146
C         57.62191        35.88192        -0.17657
C         56.38146        35.15463        -0.24490
C         57.64667        37.28040        -0.49012
C         56.42767        37.96383        -0.77736
C         57.62801        40.09867        -0.94279
C         56.39309        39.36642        -0.90106
C         57.60903        41.51730        -1.11757
C         56.35603        42.22686        -1.04748
C         57.55810        44.35015        -1.48867
C         56.34492        43.64861        -1.18542
C         57.51615        45.75914        -1.72419
C         56.29414        46.48330        -1.56447
C         57.44574        48.53693        -2.27097
C         56.24955        47.88314        -1.83676
C         58.31170        25.98143         4.06681
C         59.44721        28.17083         3.92001
C         58.33191        27.29823         3.57172
C         59.51625        29.44858         3.50260
C         58.32021        30.07259         2.82885
C         59.81563        32.03624         2.01909
C         58.60740        31.32243         2.01542
C         59.90527        33.28119         1.39904
C         58.79070        33.86679         0.76109
C         60.03292        35.95857         0.16144
C         58.82457        35.23100         0.22105
C         60.06656        37.29153        -0.22197
C         58.87749        37.99646        -0.51787
C         60.06634        40.14693        -1.00613
C         58.86760        39.40927        -0.83549
C         60.04237        41.50071        -1.27756
C         58.82243        42.22355        -1.32633
C         59.95960        44.37447        -1.94398
C         58.79261        43.65149        -1.58348
C         59.91360        45.72886        -2.21651
C         58.69730        46.44948        -2.11245
C         58.62777        47.84944        -2.39064
O         28.25171        28.97160         1.89913
O         31.69812        42.92104        -1.82382
O         52.31682        48.34253         0.82334
O         45.15864        49.55271        -1.88906
O         51.29688        34.18940        -1.80274
O         24.94205        29.58040        -1.63014
O         32.77376        27.96424         2.14737
O         51.34065        25.68434         2.24906
O         29.14011        34.58260         2.32937
O         37.92839        53.93768         2.04741
O         54.46406        37.53507        -2.15954
O         29.22581        47.72034        -1.51476
O         35.47456        23.24063         1.37209
O         47.14442        50.28229         0.95618
O         47.05805        22.37403         1.53681
O         56.14125        24.43128         1.70693
O         55.25254        31.88250         2.24224
O         47.14057        19.92185         0.59784
O         56.01373        32.87417        -1.16896
O         40.92758        54.90630         1.82402
O         45.39042        44.55354         1.88579
H         45.38927        43.63356         2.22712
O         31.75932        46.93126        -2.07628
H         30.90303        47.36587        -2.31385
O         39.12734        30.46225         2.31753
H         39.03208        31.27467         2.85801
O         44.93566        31.51439         2.19606
H         45.68031        31.94812         2.66248
O         38.91429        55.05885        -1.27432
H         39.56666        55.65628        -1.69690
O         26.51487        41.98887        -2.04608
H         27.29754        42.36664        -2.50127
O         57.40443        30.46024         3.88896
H         57.79989        31.20751         4.38292
O         44.26038        30.99273        -1.35900
H         43.48651        30.60489        -1.81842
O         30.28872        48.08092         1.94828
H         31.00155        48.49528         2.47994
O         55.83642        27.07727        -0.15884
H         56.67221        27.59471        -0.22764
O         39.20027        50.68926         2.36998
H         39.86090        51.34211         2.68718
O         52.90051        40.05793         1.38137
H         52.17407        40.59084         1.77057
O         38.94841        29.91291        -1.29419
H         38.88939        29.08650        -1.81761
O         25.56926        42.21711         1.48884
H         24.82275        41.85407         2.01133
O         47.74411        48.84631        -2.39168
H         46.82885        49.12886        -2.64245
O         58.29268        28.74919         0.76164
H         59.15345        28.36863         1.03868
O         36.56616        33.83776         2.65035
H         35.73428        34.28290         2.92165
O         33.71050        24.88934         2.16312
H         34.15462        24.04804         2.42498
O         53.43223        50.70910         0.62931
H         53.06966        50.13265         1.34082
O         23.88977        41.80782        -1.79739
H         24.73085        41.93125        -2.29900
H         22.05875        26.94511        -0.71945
H         21.95030        29.33618        -0.22700
H         21.98803        31.26775         0.17607
H         21.99465        33.65388         0.68264
H         22.01511        35.53342         0.95604
H         22.03949        37.96768         0.87674
H         22.18805        39.93427         1.27736
H         22.07600        42.26779         0.57042
H         22.01434        43.98592        -0.57525
H         22.02448        46.46320        -0.46637
H         25.40070        23.62260        -1.13785
H         23.29769        24.88878        -1.14420
H         25.37029        49.80415         0.11633
H         23.25164        48.58550        -0.18578
H         27.04567        22.72446        -1.27193
H         27.00386        50.59721         0.93476
H         29.15191        21.53747        -1.41317
H         29.10671        51.80232         1.09537
H         32.88220        19.58250        -2.10693
H         30.78160        20.77116        -1.87439
H         32.86567        53.97515         1.26286
H         30.75830        52.75837         1.21131
H         34.45627        18.52433        -1.91801
H         34.37629        54.89229         0.45605
H         36.55506        17.37533        -2.32620
H         36.42149        56.17192         0.13400
H         40.36026        15.39800        -3.16514
H         38.21151        16.52761        -2.77954
H         40.32727        58.44220         0.47286
H         38.18717        57.25127         0.60391
H         42.82868        15.39045        -3.07904
H         42.74638        58.39134        -0.24714
H         44.95104        16.51343        -2.55233
H         44.86029        57.15505        -0.42909
H         48.63156        18.74840        -2.12238
H         46.54286        17.62953        -2.59493
H         48.61798        55.03511        -0.51773
H         46.51852        56.23725        -0.34880
H         50.30101        19.47944        -1.37628
H         50.26252        54.08688        -0.60382
H         52.37322        20.73250        -1.15146
H         52.37128        52.84507        -0.72001
H         56.03576        22.62800         0.03302
H         53.98118        21.73663        -1.03043
H         55.57132        50.38805        -2.76532
H         53.63261        51.71374        -2.11539
H         57.51380        23.99873         3.72365
H         57.42734        49.61572        -2.47807
H         59.04754        25.66068         4.81688
H         60.26325        27.73213         4.51435
H         60.36740        30.07897         3.79899
H         60.69993        31.63451         2.53363
H         60.86068        33.82036         1.44894
H         60.98012        35.46731         0.42197
H         61.03639        37.80595        -0.25089
H         61.03770        39.63793        -0.94501
H         60.99694        42.02356        -1.42339
H         60.92166        43.85242        -2.03401
H         60.82876        46.26107        -2.51390
H         59.54322        48.37453        -2.70005
