         272
 CSIRO Nanostructure Databank - Neutral Graphene Oxide Data Set
C        -11.24217         0.60182         1.69025
C        -10.09671         1.53554         1.98594
C         -8.70825         0.82284         2.02788
C         -7.48224         1.43893         1.52478
C         -6.22485         0.65747         1.14048
C         -4.96606         1.58276         1.15670
C         -3.67377         0.98912         0.71874
C         -2.34930         1.77893         0.53953
C         -1.29723         0.94215         1.28333
C         -0.06947         1.57442         1.89363
C          1.24077         0.77031         1.99100
C          2.57011         1.53425         2.08541
C          3.87572         0.74142         1.96633
C          5.19251         1.52508         1.98119
C          6.49824         0.72509         1.85618
C          7.80371         1.46366         1.58497
C          9.01716         0.66498         1.17526
C          9.97730         1.28529         0.16141
C         11.30830         0.57539         0.09136
C         -9.98471         2.69176         0.98694
C         -8.86926         3.43930         0.87120
C         -7.62268         2.99286         1.62405
C         -6.40578         3.73068         1.11457
C         -5.08842         3.07019         0.96614
C         -3.83630         3.91598         1.03596
C         -2.50375         3.22719         1.01139
C         -1.31321         3.87981         1.65841
C         -0.02033         3.08948         1.92708
C          1.28346         3.82977         1.94012
C          2.59492         3.03985         2.00835
C          3.88292         3.79293         1.73434
C          5.19191         3.02988         1.84348
C          6.47006         3.75300         1.43148
C          7.74489         2.95471         1.26382
C          8.83823         3.50808         0.40820
C         10.16947         2.78984         0.40444
C         -8.77834         4.62768        -0.07549
C         -7.67224         5.63823         0.23719
C         -6.51473         5.22391         1.07629
C         -5.25892         6.05879         1.19242
C         -3.94619         5.32255         1.64792
C         -2.64540         6.10849         1.30617
C         -1.32323         5.38163         1.58416
C          0.02790         6.13375         1.45587
C          1.21964         5.15166         1.20465
C          2.49161         5.67991         0.63725
C          3.82826         5.14834         1.10130
C          5.07012         5.89833         0.59475
C          6.39901         5.12229         0.76789
C          7.53983         5.55986        -0.11019
C          8.70290         4.66513        -0.27371
C         -7.66672         6.84553        -0.36428
C         -6.51071         7.77266        -0.30843
C         -5.25184         7.38734         0.46074
C         -3.93881         7.97431        -0.00869
C         -2.65362         7.37957         0.51803
C         -1.35039         7.88281        -0.07454
C         -0.02258         7.25364         0.37209
C          1.13677         7.48050        -0.51384
C          2.45053         6.96688        -0.12118
C          3.62274         7.26343        -0.99687
C          4.87077         6.28583        -0.90138
C          6.07817         7.04026        -1.47011
C          7.31957         6.62941        -1.11706
C         -6.37575         8.62153        -1.51741
C         -5.19072         9.04083        -1.98861
C         -3.92099         8.80766        -1.26067
C         -2.66999         8.88949        -2.10590
C         -1.37795         8.58909        -1.37939
C         -0.21494         8.94901        -1.98372
C          1.07408         8.40485        -1.59248
C          2.18344         8.67767        -2.40201
C          3.40663         7.81883        -2.40371
C          4.66370         8.51025        -2.87798
C          5.87670         8.10562        -2.44599
C        -11.19171        -0.59000         1.06383
C        -10.02176        -1.20608         0.42481
C         -8.98282        -0.34654        -0.19705
C         -7.60399        -0.94965        -0.49968
C         -6.31729        -0.25953        -0.10828
C         -5.00961        -1.00020        -0.39644
C         -3.70830        -0.33847         0.02390
C         -2.42196        -1.08812         0.04783
C         -1.30022        -0.53918         0.90920
C         -0.03673        -1.33354         1.05060
C          1.25339        -0.67881         1.53345
C          2.55260        -1.29359         1.02583
C          3.85614        -0.69776         1.52680
C          5.14497        -1.33056         1.03428
C          6.45433        -0.75163         1.54619
C          7.72939        -1.62757         1.31006
C          9.04939        -0.85452         1.24341
C         10.30618        -1.57212         0.82273
C         11.44169        -0.73037         0.34783
C         -9.94520        -2.55198         0.25581
C         -8.83185        -3.22998        -0.45545
C         -7.59598        -2.43804        -0.83887
C         -6.28689        -3.22168        -0.94302
C         -4.98390        -2.44631        -0.81440
C         -3.67840        -3.23283        -0.78473
C         -2.37722        -2.50958        -0.44255
C         -1.11332        -3.29197        -0.29415
C          0.02376        -2.75810         0.53600
C          1.31417        -3.50206         0.46958
C          2.57075        -2.69399         0.47280
C          3.84058        -3.49869         0.41249
C          5.11126        -2.70936         0.42912
C          6.38585        -3.49993         0.33229
C          7.50433        -2.51018         0.09000
C          9.47199        -3.95723         0.43154
C         10.38622        -3.00042         0.37515
C         -8.84660        -4.74806        -0.27672
C         -7.52843        -5.48480        -0.44674
C         -6.28185        -4.71706        -0.72780
C         -5.00434        -5.41739        -0.34619
C         -3.69840        -4.73276        -0.64758
C         -2.43247        -5.43280        -0.09425
C         -1.17443        -4.77673        -0.69864
C          0.06378        -5.59357        -0.36083
C          1.35094        -4.92596        -0.05665
C          2.57675        -5.38601        -0.82566
C          3.85483        -4.90006        -0.14585
C          5.13909        -5.50894        -0.64851
C          6.41186        -4.92620        -0.09794
C          7.75227        -5.53768        -0.56907
C          8.82370        -5.11199         0.44433
C         -7.51720        -6.83381        -0.34435
C         -6.29665        -7.70791        -0.10575
C         -5.00331        -6.90424        -0.14346
C         -3.72391        -7.67084        -0.37065
C         -2.42646        -6.94659        -0.35984
C         -1.23962        -7.66793        -0.97433
C          0.06893        -6.96779        -0.98388
C          1.36096        -7.70500        -0.66035
C          2.55367        -6.89177        -1.17551
C          3.82155        -7.60158        -1.49670
C          5.13699        -6.86467        -1.30208
C          6.41574        -7.71587        -1.23481
C          7.58223        -7.02808        -0.58301
C         -6.21990        -8.98800        -0.91323
C         -5.07713        -9.58546        -1.28595
C         -3.73421        -8.88981        -1.28936
C         -2.49400        -9.74904        -1.05143
C         -1.28061        -9.15827        -0.93845
C          0.04241        -9.90401        -0.70125
C          1.32489        -9.16028        -1.09464
C          2.48239        -9.78918        -1.38343
C          3.84494        -9.13321        -1.59672
C          4.93114        -9.67374        -0.69260
C          6.10606        -9.04266        -0.56643
O         -6.25723        -4.14131        -2.07024
O          8.91949         1.23514         2.50763
O         -2.87352        -7.72750         0.80397
O         -7.87619         1.12189         3.02004
O          4.61181         5.15685        -1.63280
O          1.60195         4.79587        -0.16875
O          0.50587        -3.52071         1.67943
O          2.64592         2.34868         3.28532
O         -3.86239         9.43488         0.04742
O         -0.49921         8.53499         0.89880
O          0.66807        -5.74876         0.94551
O          3.80910        -4.66965         1.28230
O         -4.02402         1.08504         2.14158
O         -1.07815        -1.34734         2.08480
O         -1.55594         4.69368         2.84320
O         -5.93734         3.29347        -0.21160
O          7.47548         3.72801         2.47691
O         -9.23998         0.77960        -0.60001
O         -2.78024        -0.27445        -1.09689
O          7.41552         6.01669         1.28990
O         10.00063        -1.33143         2.24049
O         -6.24946         6.00052         2.26352
O         -4.97651        -5.98205         1.00258
O          6.46170        -4.57254         1.31039
O         -1.18895         1.11900         2.70840
O          2.52031        -1.52943        -0.41310
O          2.95437        -7.08451        -2.56597
O         -3.01905         3.98684        -0.16500
O          0.55191         3.65715         3.15536
O         -6.18054         8.36624         0.98640
O          6.50328        -0.27840         2.91174
O          3.89137         5.01356         2.55147
O          1.21284        -0.33317         2.93213
O         -6.93696         0.05115        -1.35802
O          5.14498        -1.51920        -0.41608
O         -8.59622        -2.79593        -1.82845
O          5.22915        -5.65244        -2.10493
O         -7.77216         3.10669         3.00892
O         -1.34059        -2.48936        -1.49001
O          1.44764        -7.77600         0.74488
O          3.87319        -0.36736         2.92518
O          7.93147        -2.28167        -1.03231
O         -2.63320         7.39631         1.98054
O         -0.62576        -7.17484        -2.21839
O         -3.58715        -4.11549        -1.94389
O          3.38645         8.08052         0.12715
O          5.30145         2.39669         3.14291
O         -4.93411        -1.37782        -1.79719
O         -6.04082        -0.34672         2.15529
H         -5.54509         0.04903         2.90936
O         -6.46471        -8.16278         1.26777
H         -6.11040        -7.45402         1.85071
O          0.30828         6.76175         2.70350
H         -0.04435         6.19023         3.42143
O         -1.84628         1.87366        -0.79231
H         -2.44320         2.45502        -1.31425
O         -2.38865        -5.19150         1.31340
H         -2.75516        -5.98978         1.76448
O          5.17912         7.08692         1.37059
H          5.28816         6.82957         2.31134
O        -10.29968         2.09125         3.27135
H         -9.49222         2.64190         3.47265
O          8.04924        -5.06192        -1.89402
H          8.11203        -4.07608        -1.86008
O         -4.03298         5.15018         3.05390
H         -4.05073         6.03425         3.47760
O          7.77240        -2.52381         2.42267
H          7.92902        -1.98855         3.23158
O         10.84448         3.00815         1.64043
H         10.26959         2.66626         2.36529
O          2.48905        -4.64151        -2.05654
H          2.89615        -5.20050        -2.76392
O         -9.31611        -4.99194         1.05705
H         -9.27241        -5.95363         1.23805
O          0.16010       -10.13545         0.70805
H          0.55769        -9.30847         1.09901
O         -2.83659         7.91852        -3.15401
H         -2.06202         7.96261        -3.75183
O          6.88561        -7.95117        -2.59062
H          7.01171        -7.06679        -3.00238
O          4.23924        -9.44612        -2.95192
H          3.70857        -8.87027        -3.54479
O         -3.61524        -8.31179        -2.62476
H         -3.48483        -9.03692        -3.27055
O          9.30021         1.11443        -1.11602
H          9.95367         1.22684        -1.83760
O          3.15589         6.65535        -3.23906
H          3.73096         5.91099        -2.88880
O         -1.20622        -4.85244        -2.11951
H         -1.49751        -3.97902        -2.48006
O        -10.03468         5.29220        -0.17978
H        -10.25348         5.67756         0.69335
H         12.42408        -1.21732         0.24536
H         12.17866         1.16896        -0.22833
H         10.81348         3.20966        -0.41133
H          9.53558         5.02281        -0.90046
H          8.21027         7.10438        -1.55988
H          6.78222         8.59809        -2.83475
H          4.57780         9.31082        -3.62771
H          2.14556         9.55353        -3.06948
H         -0.25239         9.53240        -2.91703
H         -2.59549         9.91525        -2.56824
H         -5.13429         9.59279        -2.93828
H         -7.29106         8.81104        -2.09871
H         -8.50540         7.11964        -1.02363
H         -8.55328         4.21004        -1.09703
H        -10.89490         2.97094         0.43379
H        -12.20885         0.92039         2.10921
H        -12.11561        -1.18943         1.02513
H        -10.73290        -3.19763         0.67298
H         -9.59575        -5.16842        -1.00997
H         -8.48094        -7.34744        -0.18259
H         -7.17073        -9.53009        -1.03572
H         -5.12821       -10.56730        -1.78436
H         -2.59594       -10.84536        -1.03332
H          0.00538       -10.89990        -1.21583
H          2.46525       -10.87318        -1.58553
H          4.76591       -10.63478        -0.18311
H          6.89888        -9.48497         0.05646
H          8.44439        -7.66034        -0.31677
H          8.91397        -5.74963         1.34289
H         11.34546        -3.26377        -0.11156
