         200
 CSIRO Nanostructure Databank - Neutral Graphene Oxide Data Set
C        -11.06781         0.68084        -0.95426
C         -9.83861         1.43940        -1.01132
C         -8.57014         0.67077        -1.08870
C         -7.23861         1.41660        -1.01963
C         -6.18883         0.69954        -0.19233
C         -5.06284         1.44507         0.19641
C         -3.94279         0.76828         0.86233
C         -2.61603         1.50791         0.91188
C         -1.36348         0.78816         1.19673
C         -0.33222         1.65296         1.53991
C          1.48502         0.57264         1.58946
C          2.54302         1.38904         1.10684
C          3.72498         0.67657         0.75030
C          4.93704         1.38964         0.48668
C          6.15943         0.65991         0.25586
C          7.37440         1.38772        -0.04640
C          8.58229         0.70090        -0.25483
C          9.76226         1.40735        -0.62244
C         10.96746         0.65233        -0.93222
C         -9.81912         2.81345        -0.96138
C         -8.58864         3.57198        -0.82261
C         -7.36434         2.87574        -0.65358
C         -6.18423         3.57876        -0.34021
C         -4.99170         2.85177         0.01478
C         -3.75461         3.55830         0.18085
C         -2.55685         2.87455         0.42629
C         -1.22733         3.54784         0.19810
C         -0.08975         2.92096         0.96969
C          1.19161         3.55085         0.92851
C          2.45617         2.83090         0.97977
C          3.66242         3.52112         0.62464
C          4.90051         2.80427         0.43068
C          6.10949         3.51675         0.09487
C          7.32712         2.80992        -0.14440
C          8.52836         3.52242        -0.47271
C          9.72543         2.79868        -0.72938
C         -8.59239         4.97838        -0.76418
C         -7.39628         5.71363        -0.57254
C         -6.17688         5.00455        -0.32901
C         -4.95652         5.71258        -0.10056
C         -3.74292         5.00083         0.09097
C         -2.52338         5.69121         0.37346
C         -1.29595         5.02674         0.47731
C         -0.04646         5.70935         0.60037
C          1.19308         4.96597         0.63921
C          2.41861         5.66527         0.47008
C          3.65254         4.94139         0.42419
C          4.86516         5.64490         0.13628
C          6.09239         4.93015        -0.01871
C          7.30339         5.64184        -0.33366
C          8.49712         4.93179        -0.54866
C         -7.37218         7.14040        -0.60357
C         -6.19005         7.85379        -0.39599
C         -4.96318         7.15039        -0.11839
C         -3.79042         7.87078         0.17078
C         -2.59092         7.14137         0.59432
C         -1.25929         7.90293         0.66496
C         -0.01893         7.12868         0.53374
C          1.19151         7.81875         0.31747
C          2.41666         7.08688         0.27336
C          3.63503         7.78307         0.04891
C          4.85674         7.06114        -0.03075
C          6.08079         7.76636        -0.30029
C          7.27250         7.06045        -0.44210
C         -6.14681         9.29373        -0.42291
C         -4.98222         9.97938        -0.21025
C         -3.74782         9.29467         0.07910
C         -2.51933         9.98759         0.14649
C         -1.27549         9.33030         0.29318
C         -0.04208         9.96327         0.08093
C          1.18323         9.25011         0.12300
C          2.41626         9.91298        -0.08897
C          3.62368         9.21019        -0.12618
C          4.87148         9.89050        -0.35796
C          6.04490         9.20052        -0.44221
C        -11.10462        -0.67089        -0.74091
C         -9.91605        -1.46623        -0.55246
C         -8.61046        -0.79462        -0.75681
C         -7.40175        -1.46202        -0.23071
C         -6.23242        -0.70435         0.03920
C         -5.04445        -1.37942         0.53429
C         -3.89967        -0.69784         0.87943
C         -2.56100        -1.37127         0.94737
C         -1.34099        -0.69044         1.57962
C         -0.01907        -1.46602         1.25902
C          1.27939        -0.77629         1.22904
C          2.46480        -1.43043         0.78563
C          3.67708        -0.74586         0.68287
C          4.96971        -1.51457         0.69810
C          6.17688        -0.74210         0.25854
C          7.36825        -1.48389         0.01403
C          8.68525        -0.76305         0.08680
C          9.81059        -1.48851        -0.60968
C         10.97761        -0.70983        -0.96271
C         -9.93650        -2.82136        -0.30967
C         -8.71787        -3.58053        -0.13957
C         -7.46870        -2.86799        -0.00774
C         -6.30216        -3.58993         0.33861
C         -5.09709        -2.84477         0.72031
C         -3.80768        -3.60241         0.86163
C         -2.52653        -2.84828         0.75735
C         -1.27147        -3.60832         0.92932
C         -0.05276        -2.84938         1.04715
C          1.24439        -3.64974         1.05715
C          2.38003        -2.86814         0.43811
C          3.62706        -3.59989         0.07941
C          4.91244        -2.89913         0.11548
C          6.08832        -3.59502        -0.10295
C          7.34768        -2.87441        -0.14645
C          8.55163        -3.60574        -0.48163
C          9.75766        -2.84938        -0.75886
C         -8.71848        -4.97227        -0.03256
C         -7.51351        -5.71373         0.14371
C         -6.28166        -5.00215         0.35003
C         -5.04285        -5.72718         0.46426
C         -3.79559        -5.04930         0.60275
C         -2.56191        -5.71612         0.53483
C         -1.30417        -4.99058         0.68759
C         -0.06258        -5.69511         0.41984
C          1.15428        -5.04809         0.46879
C          2.39546        -5.75271         0.16965
C          3.62556        -5.06889         0.09896
C          4.84898        -5.75604        -0.10720
C          6.07626        -5.03422        -0.25288
C          7.29043        -5.73464        -0.45750
C          8.50881        -4.98562        -0.61943
C         -7.49690        -7.12920         0.12660
C         -6.29454        -7.84686         0.21493
C         -5.05010        -7.14401         0.34716
C         -3.81533        -7.85350         0.31712
C         -2.57589        -7.14712         0.35415
C         -1.37317        -7.86001         0.14964
C         -0.14208        -7.09087        -0.06498
C          1.14614        -7.87073        -0.24835
C          2.40849        -7.16205        -0.02335
C          3.61396        -7.88054        -0.12919
C          4.85116        -7.17963        -0.17684
C          6.08409        -7.88018        -0.37205
C          7.27465        -7.15590        -0.51260
C         -6.25978        -9.28351         0.13469
C         -5.07524        -9.96651         0.12177
C         -3.80985        -9.27908         0.17465
C         -2.59290        -9.96756         0.06545
C         -1.35802        -9.27475         0.01808
C         -0.11021        -9.98851        -0.10561
C          1.11657        -9.34491        -0.16261
C          2.37879       -10.02204        -0.19098
C          3.58633        -9.32814        -0.23555
C          4.85421       -10.00596        -0.36005
C          6.03582        -9.32253        -0.43568
O         -6.68773         1.43825        -2.37710
H         -7.03430         0.62713        -2.82183
O          0.41933        -7.31247        -1.40526
O          0.59312         1.16536         2.47905
O         -2.35094        -1.93791        -0.40191
O          5.20164        -1.76865         2.14908
H          6.14866        -2.00778         2.25511
O          9.04487        -0.79029         1.52767
H          9.89461        -0.30755         1.61708
O         -3.52312         1.39742         2.11288
O         -0.89984         3.39271        -1.23540
H         -1.62305         3.81092        -1.74920
O          1.61615        -3.81605         2.46279
H          0.84151        -4.17851         2.94162
O         -1.51078        -0.79584         3.01458
H         -0.86289        -0.18442         3.43020
O          2.65030        -3.09296        -0.97018
O         -2.03061         7.59118         1.87010
O         -8.52349        -0.31865        -2.17499
O         -4.58398        -3.24594         2.05549
H         11.88304        -1.24578        -1.28645
H         11.86958         1.21543        -1.21366
H         10.63385         3.34994        -1.01468
H          9.41734         5.48160        -0.79580
H          8.20476         7.60007        -0.66606
H          6.99008         9.73050        -0.63098
H          4.85857        10.98388        -0.47725
H          2.41973        11.00315        -0.23853
H         -0.02079        11.03857        -0.15282
H         -2.51964        11.07351        -0.03455
H         -4.97328        11.07828        -0.26024
H         -7.07762         9.84136        -0.63258
H         -8.30825         7.68590        -0.79679
H         -9.53974         5.52090        -0.90246
H        -10.77182         3.36491        -0.93735
H        -12.01329         1.23768        -1.03895
H        -12.07802        -1.18011        -0.67753
H        -10.89895        -3.35156        -0.24425
H         -9.66831        -5.52021        -0.12589
H         -8.44306        -7.67549        -0.00516
H         -7.21274        -9.82855         0.06561
H         -5.07194       -11.06373         0.04243
H         -2.59907       -11.06336        -0.03481
H         -0.14326       -11.08863        -0.10809
H          2.38739       -11.12257        -0.21155
H          4.85268       -11.10468        -0.41954
H          6.98106        -9.87247        -0.55656
H          8.22090        -7.69463        -0.67256
H          9.43177        -5.53268        -0.86547
H         10.62670        -3.38981        -1.16672
