         600
 CSIRO Nanostructure Databank - Neutral Graphene Oxide Data Set
C         23.01903        27.39062         0.46718
C         23.02533        28.74769         0.36136
C         23.06541        31.67707         0.80729
C         23.08196        33.04441         0.91112
C         23.10240        35.96352         1.05274
C         23.10924        37.34262         1.10235
C         23.12105        40.25971         1.24376
C         23.11934        41.63860         1.26384
C         23.11349        44.56513         1.27629
C         23.11211        45.94102         1.25519
C         25.47590        24.51708         0.54850
C         24.29591        25.17244         0.57952
C         25.50315        27.31007         0.30291
C         24.26527        26.65074         0.87252
C         25.50150        28.81625         0.20329
C         24.23758        29.52926         0.43812
C         25.51930        31.64994         0.56076
C         24.26713        30.92890         0.60192
C         25.52258        33.07538         0.66608
C         24.29701        33.78714         0.82755
C         25.53542        35.94050         0.81276
C         24.30314        35.22320         0.90317
C         25.53985        37.37205         0.84888
C         24.31285        38.08128         0.99733
C         25.53188        40.23996         0.85478
C         24.31626        39.52637         1.03522
C         25.52851        41.66958         0.85852
C         24.31090        42.37908         1.06497
C         25.52225        44.52321         0.82491
C         24.30935        43.82312         1.05975
C         25.52597        45.95055         0.80132
C         24.31225        46.66188         1.01548
C         25.48810        48.77089         0.75630
C         24.32038        48.08351         0.98527
C         28.02600        23.05814         0.92511
C         27.99076        24.49929         0.77055
C         26.76705        25.20210         0.65340
C         27.98981        27.34753         0.49001
C         26.78239        26.61226         0.50699
C         27.98518        28.80408         0.41592
C         26.78227        29.52308         0.34926
C         27.99257        31.66691         0.44562
C         26.75878        30.94870         0.44900
C         27.99089        33.09262         0.49725
C         26.76043        33.79958         0.61062
C         27.99806        35.94625         0.61048
C         26.76446        35.22737         0.67827
C         28.00038        37.37623         0.64275
C         26.77181        38.08979         0.73137
C         27.97255        40.23572         0.47990
C         26.76948        39.52606         0.69032
C         27.96560        41.67578         0.40117
C         26.74853        42.38780         0.63380
C         27.95940        44.52174         0.35497
C         26.74818        43.80831         0.60370
C         27.96339        45.95286         0.34124
C         26.73964        46.66846         0.56461
C         27.95141        48.80499         0.32559
C         26.72188        48.08780         0.54447
C         27.97752        50.22406         0.31208
C         30.48472        23.04358         0.86643
C         29.18756        22.36725         0.99906
C         30.48081        24.51677         0.71830
C         29.22866        25.22471         0.75738
C         30.44940        27.40055         0.81950
C         29.20433        26.64281         0.66487
C         30.46350        28.84148         0.52972
C         29.23021        29.52808         0.44170
C         30.46586        31.66462         0.35368
C         29.22767        30.95534         0.39505
C         30.46022        33.09727         0.34619
C         29.22949        33.80526         0.43967
C         30.45903        35.94676         0.40542
C         29.22700        35.23320         0.48044
C         30.45079        37.36825         0.50415
C         29.24297        38.08892         0.58744
C         30.41078        40.24107         0.20479
C         29.23408        39.53291         0.45020
C         30.33937        41.61480        -0.40469
C         29.14718        42.38957         0.09526
C         30.38947        44.52581        -0.17657
C         29.16640        43.80385         0.08586
C         30.39613        45.94452        -0.13298
C         29.17335        46.66059         0.11271
C         30.39371        48.81436        -0.04658
C         29.16922        48.09338         0.12639
C         30.39006        50.23441        -0.01797
C         29.15522        50.91471         0.14614
C         32.82768        20.22236        -0.28123
C         31.68619        20.84341         0.08099
C         32.80564        23.06781        -0.28805
C         31.71516        22.28769         0.42511
C         32.90246        24.50774         0.15551
C         31.70514        25.18290         0.52389
C         32.97277        27.37874         0.35498
C         31.76741        26.63580         0.74484
C         32.94285        28.79564         0.31455
C         31.69795        29.52534         0.41512
C         32.93514        31.66272         0.17080
C         31.69703        30.94963         0.31119
C         32.92293        33.09510         0.11307
C         31.69299        33.81441         0.24420
C         32.92915        35.95623         0.10597
C         31.69344        35.23827         0.26245
C         32.96179        37.37680         0.17020
C         31.73194        38.07575         0.54913
C         32.92794        40.26742        -0.12119
C         31.71134        39.61604         0.38828
C         32.84499        41.66068        -0.44676
C         31.64419        42.37386        -0.38188
C         32.79586        44.55077        -0.69335
C         31.61105        43.81576        -0.45291
C         32.83229        45.97198        -0.58576
C         31.62090        46.67287        -0.31436
C         32.84722        48.82007        -0.35579
C         31.62499        48.10256        -0.24367
C         32.85453        50.25294        -0.26884
C         31.63023        50.96274        -0.13041
C         32.85237        53.07278        -0.14129
C         31.66181        52.37909        -0.08280
C         35.39098        18.77665        -0.43803
C         35.34710        20.19672        -0.40656
C         34.10989        20.92514        -0.33171
C         35.34234        23.05743        -0.32518
C         34.12057        22.32248        -0.26714
C         35.33922        24.49016        -0.26159
C         34.11638        25.20746        -0.00656
C         35.37517        27.36686        -0.12662
C         34.15186        26.65307         0.07214
C         35.37181        28.78318        -0.04009
C         34.16635        29.50521         0.11619
C         35.37889        31.66864        -0.15352
C         34.15765        30.95191         0.07256
C         35.36097        33.09271        -0.24101
C         34.13946        33.80879        -0.07416
C         35.36343        35.96148        -0.24506
C         34.14111        35.24048        -0.09206
C         35.37355        37.38773        -0.25192
C         34.15165        38.10758        -0.06760
C         35.36974        40.24165        -0.54257
C         34.13296        39.55042        -0.22395
C         35.36200        41.63667        -0.85908
C         34.05139        42.32020        -0.97733
C         35.27168        44.58117        -1.36920
C         33.98767        43.83183        -1.16804
C         35.30352        46.02799        -1.02849
C         34.07028        46.70071        -0.73294
C         35.31318        48.83978        -0.57774
C         34.07739        48.11340        -0.55826
C         35.32609        50.25922        -0.42893
C         34.08766        50.97635        -0.31712
C         35.34621        53.12187        -0.26277
C         34.09126        52.39508        -0.24355
C         35.39690        54.53018        -0.24843
C         37.83910        18.77139        -0.46010
C         36.58764        18.09335        -0.46918
C         37.82711        20.20261        -0.48042
C         36.58506        20.91137        -0.44544
C         37.79692        23.06242        -0.57239
C         36.57026        22.34089        -0.43802
C         37.76504        24.47870        -0.63413
C         36.56468        25.20666        -0.42961
C         37.80036        27.37427        -0.64589
C         36.59229        26.64724        -0.39641
C         37.84042        28.78048        -0.53072
C         36.68113        29.51457         0.08256
C         37.79306        31.65565        -0.62429
C         36.60766        30.96954        -0.30298
C         37.78907        33.09466        -0.67249
C         36.58095        33.80849        -0.44122
C         37.81364        35.94780        -0.48082
C         36.58368        35.23839        -0.41129
C         37.82634        37.38244        -0.46216
C         36.61156        38.09589        -0.40501
C         37.83090        40.24690        -0.69259
C         36.59989        39.53611        -0.53901
C         37.81991        41.65934        -0.90293
C         36.56643        42.33453        -1.05606
C         37.85442        44.53925        -1.32620
C         36.56298        43.77964        -1.41785
C         37.81180        46.03962        -1.18213
C         36.51519        46.72895        -0.99147
C         37.78263        48.84441        -0.62871
C         36.54410        48.13641        -0.72329
C         37.79420        50.24821        -0.45090
C         36.55963        50.96650        -0.38931
C         37.81282        53.10318        -0.26225
C         36.57254        52.39724        -0.29180
C         37.82878        54.51752        -0.29242
C         36.61170        55.20993        -0.29126
C         40.36352        15.96655        -0.44072
C         39.15207        16.65435        -0.49546
C         40.33719        18.80728        -0.02908
C         39.08016        18.05370        -0.40631
C         40.34426        20.24431        -0.47808
C         39.06001        20.94204        -0.54723
C         40.33422        23.07643        -0.52171
C         39.02887        22.33317        -0.63331
C         40.28632        24.46825        -1.09793
C         38.97915        25.20842        -1.03534
C         40.23942        27.33010        -1.11555
C         39.02747        26.67140        -0.96112
C         40.22715        28.80220        -1.42481
C         39.00819        29.50898        -0.86083
C         40.23473        31.61284        -1.26480
C         39.00076        30.90566        -0.86597
C         40.24523        33.10853        -1.17890
C         39.00502        33.82631        -0.80279
C         40.33611        35.89753        -0.39715
C         39.02113        35.20921        -0.62628
C         40.28675        37.38931        -0.55270
C         39.09424        38.09399        -0.51660
C         40.28846        40.27018        -0.63051
C         39.08145        39.54807        -0.59429
C         40.30177        41.68055        -0.82447
C         39.07018        42.37631        -0.95051
C         40.28278        44.50904        -0.81528
C         39.09442        43.80579        -0.98707
C         40.27051        45.95836        -0.40426
C         39.03797        46.74035        -0.75866
C         40.28751        48.82920        -0.44465
C         39.03537        48.11331        -0.61522
C         40.28397        50.22817        -0.28550
C         39.03792        50.95816        -0.29712
C         40.27213        53.06111         0.10431
C         39.04987        52.35936        -0.18936
C         40.29902        54.46125         0.14775
C         39.15715        55.22658        -0.48344
C         40.30155        57.29285         0.31947
C         39.17750        56.69048        -0.13161
C         42.84578        15.96402        -0.49874
C         41.60513        16.66107        -0.41095
C         42.83125        18.78097        -0.47481
C         41.61499        18.07870        -0.36757
C         42.82484        20.22201        -0.59270
C         41.53988        20.89363        -0.67942
C         42.79450        23.09137        -0.84826
C         41.51733        22.33074        -1.13867
C         42.76420        24.50916        -0.84236
C         41.53616        25.23274        -1.00316
C         42.73694        27.36762        -0.93944
C         41.50499        26.63029        -1.07234
C         42.73885        28.79791        -0.95384
C         41.52374        29.51545        -1.11217
C         42.75506        31.64158        -1.07195
C         41.53279        30.90917        -1.13877
C         42.75204        33.09285        -1.12826
C         41.55006        33.78539        -1.09608
C         42.80262        35.98841        -1.18975
C         41.49691        35.25041        -1.12832
C         42.83551        37.40107        -0.78987
C         41.58381        38.06846        -0.42282
C         42.82523        40.27373        -0.76907
C         41.57405        39.59431        -0.40819
C         42.79201        41.69245        -0.92937
C         41.55443        42.39271        -0.88350
C         42.73950        44.57362        -0.95386
C         41.53601        43.82608        -0.85080
C         42.75121        45.99604        -0.86403
C         41.54365        46.70996        -0.68368
C         42.77258        48.83707        -0.51226
C         41.52971        48.11607        -0.54842
C         42.76324        50.25227        -0.20892
C         41.51585        50.93024        -0.08877
C         42.69551        52.97013         0.62763
C         41.50910        52.31575         0.24875
C         42.54525        54.32796         1.28196
C         41.45772        55.14704         0.61259
C         42.67374        57.22809         1.13248
C         41.48679        56.53788         0.67057
C         44.03894        16.64850        -0.51721
C         45.30319        18.81243        -0.48866
C         44.07342        18.07378        -0.50947
C         45.29174        20.24621        -0.54512
C         44.02475        20.93844        -0.66410
C         45.22268        23.13318        -0.60256
C         44.01594        22.40048        -0.72704
C         45.20313        24.54138        -0.54198
C         43.97411        25.24299        -0.68882
C         45.17197        27.39277        -0.51055
C         43.95387        26.67128        -0.72407
C         45.18409        28.80982        -0.57952
C         43.96965        29.51612        -0.81463
C         45.22762        31.65998        -0.87495
C         43.97743        30.94306        -0.92034
C         45.24874        33.07576        -0.98304
C         44.01988        33.80888        -1.10137
C         45.27634        35.93555        -1.02033
C         44.05001        35.21409        -1.13111
C         45.28415        37.36718        -1.03381
C         44.03147        38.10380        -0.90091
C         45.22944        40.26405        -1.30954
C         44.00824        39.54486        -0.92322
C         45.24060        41.73149        -1.21879
C         44.03828        42.39860        -1.11683
C         45.29783        44.63633        -1.28099
C         43.97706        43.86491        -1.29178
C         45.24610        46.04890        -0.91574
C         44.00446        46.71758        -0.84244
C         45.25651        48.84968        -0.61515
C         43.97767        48.13074        -0.64396
C         45.24585        50.32976        -0.27443
C         43.96093        50.96578         0.01380
C         45.18965        52.99133         0.73597
C         43.95338        52.30851         0.50401
C         45.18236        54.38095         1.23940
C         43.86361        55.08128         1.48553
C         43.79723        56.56278         1.49075
C         47.73116        18.86132        -0.26583
C         46.55952        18.15430        -0.38912
C         47.73999        20.28836        -0.26913
C         46.50603        20.96463        -0.45852
C         47.67793        23.18135        -0.05225
C         46.55353        22.44594        -0.74556
C         47.61651        24.55581         0.10973
C         46.40773        25.28464        -0.25232
C         47.53065        27.45305         0.35868
C         46.37357        26.67260        -0.21014
C         47.63306        28.85340        -0.18227
C         46.43632        29.53234        -0.48591
C         47.69973        31.63684        -0.69316
C         46.45033        30.94543        -0.69389
C         47.72692        33.06703        -0.84661
C         46.49865        33.78134        -0.94089
C         47.73958        35.92301        -0.92123
C         46.50382        35.21251        -0.96303
C         47.74569        37.35425        -0.96057
C         46.51889        38.05175        -1.04458
C         47.77133        40.27198        -0.99791
C         46.54604        39.50751        -1.30222
C         47.76251        41.66910        -1.01427
C         46.55535        42.43519        -1.53296
C         47.70764        44.54219        -0.72649
C         46.54217        43.88040        -1.08544
C         47.71293        45.96282        -0.47903
C         46.47219        46.71147        -0.56151
C         47.66147        48.74346         0.27959
C         46.47750        48.08434        -0.36103
C         47.68936        50.24974         0.19554
C         46.49403        50.96383         0.19186
C         47.68292        53.05435         0.68849
C         46.45082        52.35321         0.53307
C         47.62290        54.48259         0.90395
C         46.44863        55.12768         1.11986
C         50.18140        20.34302         0.22486
C         48.94169        21.02495         0.01427
C         49.99430        23.11448         0.78721
C         48.89522        22.44869         0.24574
C         49.91404        24.56741         1.19886
C         48.78487        25.31058         0.53297
C         50.06510        27.42457         0.53165
C         48.82375        26.68418         0.41732
C         50.10990        28.80083         0.15008
C         48.88205        29.51925        -0.21297
C         50.18432        31.59894        -0.73274
C         48.90354        30.89934        -0.53529
C         50.22568        33.07230        -0.75313
C         48.97242        33.78620        -0.86003
C         50.21723        35.94359        -1.06161
C         48.96043        35.19491        -0.92555
C         50.21718        37.39741        -0.81711
C         48.98679        38.09028        -0.86096
C         50.18962        40.19657        -0.50378
C         48.98270        39.52005        -0.75121
C         50.13196        41.64747        -0.11781
C         48.93632        42.39327        -0.65658
C         50.17643        44.51419        -0.39908
C         48.94861        43.79588        -0.59189
C         50.17838        45.92499        -0.31731
C         48.93334        46.64818        -0.27868
C         50.16267        48.76644         0.04805
C         48.95943        48.06243        -0.05331
C         50.16690        50.20518         0.27695
C         48.93035        50.92901         0.37565
C         50.18400        53.00352         0.69066
C         48.92262        52.34833         0.56968
C         51.24977        20.95091         0.81658
C         52.42923        23.13410         1.61010
C         51.16326        22.34893         1.22876
C         52.40276        24.60785         1.42899
C         51.24659        25.30166         1.15678
C         52.47542        27.46821         0.96829
C         51.26151        26.74189         0.90479
C         52.54037        28.82912         0.57057
C         51.35411        29.47509         0.13934
C         52.66676        31.64329        -0.07337
C         51.46375        30.85186        -0.38005
C         52.67095        33.03845        -0.27565
C         51.45304        33.72767        -0.64076
C         52.71894        35.93857        -0.48017
C         51.52848        35.17825        -0.89277
C         52.68636        37.35425        -0.45338
C         51.44293        38.07907        -0.61457
C         52.65240        40.21926        -0.26215
C         51.42360        39.49974        -0.44710
C         52.64887        41.66005        -0.25804
C         51.42925        42.38059        -0.32208
C         52.65506        44.51068        -0.35746
C         51.42260        43.78799        -0.35801
C         52.65312        45.93957        -0.32883
C         51.41092        46.65234        -0.24705
C         52.65205        48.77994        -0.05356
C         51.41190        48.06143        -0.09136
C         52.65185        50.19174         0.16731
C         51.39198        50.89941         0.35405
C         51.36428        52.30710         0.58244
C         54.90563        23.15443         1.46378
C         53.73453        22.46499         1.54623
C         54.96035        24.58634         1.54455
C         53.68683        25.30666         1.65712
C         54.99860        27.46932         1.21473
C         53.70341        26.82594         1.45357
C         55.01481        28.85980         0.88815
C         53.80188        29.54720         0.60116
C         55.07366        31.67113         0.43167
C         53.84269        30.95134         0.33822
C         55.08685        33.09226         0.24750
C         53.88542        33.78483        -0.06748
C         55.11282        35.94221         0.07222
C         53.90105        35.22124        -0.15406
C         55.11094        37.37341         0.03464
C         53.88996        38.07838        -0.18035
C         55.10376        40.22965         0.03549
C         53.87840        39.51222        -0.14575
C         55.10868        41.66077        -0.00094
C         53.87847        42.37305        -0.20041
C         55.11755        44.51870        -0.29934
C         53.88256        43.79659        -0.28761
C         55.10261        45.92189        -0.44455
C         53.87948        46.64969        -0.37076
C         55.10503        48.81755        -0.32313
C         53.88653        48.08955        -0.26584
C         55.07789        50.19594        -0.09918
C         53.88313        50.86652         0.16933
C         57.43504        24.62039         1.68271
C         56.17540        25.30252         1.56358
C         57.44700        27.43133         1.32296
C         56.18953        26.74116         1.39873
C         57.47984        28.84335         1.11559
C         56.26163        29.56069         0.88901
C         57.53181        31.67665         0.75190
C         56.28593        30.96869         0.69081
C         57.54167        33.10085         0.62435
C         56.31828        33.81205         0.39263
C         57.55710        35.95615         0.47198
C         56.32918        35.23252         0.30908
C         57.55575        37.38661         0.44536
C         56.32814        38.09609         0.23901
C         57.54260        40.25023         0.44879
C         56.32622        39.52347         0.22587
C         57.53122        41.67910         0.48287
C         56.30913        42.37925         0.20006
C         57.51360        44.52028         0.27280
C         56.34135        43.81257         0.02051
C         57.63697        45.89617        -0.19455
C         56.36951        46.63498        -0.65268
C         57.65887        48.79143        -0.33986
C         56.37728        48.15365        -0.82947
C         58.62383        25.29401         1.65887
C         59.89332        27.41097         1.44369
C         58.66293        26.71418         1.47565
C         59.92284        28.78290         1.27784
C         58.72914        29.52941         1.11223
C         59.95928        31.69907         1.00955
C         58.74730        30.96652         0.95308
C         59.96936        33.07419         0.90671
C         58.77147        33.80934         0.72645
C         59.97697        35.99153         0.80739
C         58.77757        35.25199         0.66339
C         59.97260        37.37197         0.79881
C         58.77225        38.10159         0.63468
C         59.92927        40.29336         0.94390
C         58.76447        39.55054         0.66845
C         59.89618        41.68357         1.03821
C         58.71529        42.39679         0.81102
C         59.91545        44.64899         0.96757
C         58.62091        43.88952         1.08148
C         59.95809        45.97812         0.64575
C         58.81876        46.68531         0.16994
C         58.78160        48.09918         0.02765
O         39.52649        24.65834        -2.31319
O         41.66974        38.83711         0.84196
O         51.01820        30.98145        -1.77731
O         33.73817        42.92321        -2.28241
O         31.52772        22.57551         1.83187
O         35.86691        44.17291        -2.63779
O         51.53678        22.61629         2.66085
O         44.59348        54.52320         2.63272
O         41.92854        35.81815        -2.39595
O         57.24447        46.01131        -1.63091
O         31.20634        27.05455         2.03425
O         45.38242        49.87610        -1.67952
O         25.39356        27.93141        -1.00092
O         51.02731        35.55436        -2.22280
O         40.08937        32.41510        -2.48580
O         31.88802        38.97313         1.69514
O         53.60885        26.23267         2.79314
O         44.60038        44.31530        -2.55298
O         38.03786        45.40020        -2.50270
O         45.86932        39.81172        -2.57053
O         32.37324        23.11299        -1.69349
H         33.10101        23.51073        -2.21674
O         39.39848        55.17372        -1.94147
H         40.26138        55.60840        -2.10949
O         30.07839        41.38519        -1.84768
H         30.21052        42.24100        -2.30949
O         49.92908        41.62911         1.35833
H         49.89770        42.56478         1.65363
O         40.66681        35.65771         1.02062
H         40.07771        36.21907         1.56845
O         58.21932        44.00239         2.50446
H         57.42909        43.43475         2.62999
O         24.39493        26.80124         2.32781
H         23.65491        26.31484         2.74747
O         47.47183        48.48769         1.73999
H         48.25865        48.85462         2.19850
O         46.88202        22.53632        -2.18861
H         46.16655        22.07907        -2.67960
O         47.18489        27.65084         1.78696
H         47.28301        26.78260         2.23540
O         42.02379        54.05700         2.62282
H         42.81415        53.89242         3.18868
O         46.67823        42.47253        -2.98862
H         45.91998        43.01207        -3.31802
O         40.21736        45.86618         1.08867
H         40.33937        46.77619         1.43731
O         40.30749        18.87064         1.45477
H         40.30526        17.94442         1.77909
O         41.32744        22.32713        -2.57827
H         42.08461        21.85767        -2.98478
O         40.59258        23.24758         0.89784
H         40.60620        22.35843         1.31290
O         56.36029        48.39436        -2.27189
H         56.93292        47.69896        -2.67077
O         40.10174        28.88565        -2.88808
H         39.34435        28.32335        -3.15611
O         36.96930        29.53194         1.54448
H         36.19577        29.94477         1.98555
O         49.53500        24.54018         2.62600
H         50.18929        23.94200         3.06764
H         22.07156        26.83616         0.38461
H         22.07070        29.26917         0.19479
H         22.10551        31.14814         0.87736
H         22.12837        33.56745         1.05932
H         22.13780        35.44554         1.12856
H         22.14928        37.86267         1.21476
H         22.16960        39.73515         1.39903
H         22.16625        42.15672         1.43026
H         22.16744        44.04113         1.46428
H         22.17840        46.49675         1.42305
H         25.47322        23.42799         0.39737
H         23.34813        24.62205         0.47413
H         25.45661        49.86783         0.74077
H         23.37914        48.62781         1.14844
H         27.07777        22.51206         1.02213
H         27.05064        50.79632         0.44357
H         29.17545        21.28184         1.17042
H         29.12279        52.01142         0.15179
H         32.80075        19.14761        -0.50729
H         30.75058        20.27463         0.18114
H         32.82384        54.16900        -0.09231
H         30.73027        52.95171         0.00904
H         34.45916        18.19632        -0.42198
H         34.47101        55.11998        -0.23492
H         36.56176        16.99547        -0.46889
H         36.59671        56.30770        -0.32335
H         40.36909        14.86963        -0.51077
H         38.23530        16.06766        -0.64847
H         40.32076        58.38200         0.47797
H         38.30197        57.30627        -0.38218
H         42.83818        14.86507        -0.53540
H         42.64941        58.32721         1.17203
H         44.97510        16.07620        -0.56013
H         44.68002        57.11939         1.83488
H         48.66808        18.30231        -0.14736
H         46.60424        17.05755        -0.36938
H         48.55161        55.06945         0.88174
H         46.44706        56.21157         1.29954
H         50.27350        19.28380        -0.04955
H         50.22565        54.08684         0.86553
H         52.15629        20.37143         1.03394
H         52.30600        52.86422         0.67197
H         55.84152        22.58419         1.39077
H         53.76196        21.36835         1.59173
H         56.00475        50.78216        -0.14933
H         53.92605        51.95026         0.33811
H         57.44644        23.53300         1.83418
H         57.74002        49.88234        -0.44745
H         59.57160        24.74971         1.77978
H         60.83142        26.84966         1.56078
H         60.89679        29.28919         1.26682
H         60.91466        31.17840         1.15368
H         60.93360        33.59438         0.97048
H         60.93526        35.47395         0.94179
H         60.92759        37.89855         0.92323
H         60.88402        39.78389         1.12740
H         60.82145        42.21164         1.30446
H         60.83807        44.16381         1.31532
H         60.90723        46.52820         0.74216
H         59.69248        48.66234         0.28426
