         244
 CSIRO Nanostructure Databank - Neutral Graphene Oxide Data Set
C          1.57844         2.65486        -2.39745
C          1.44944         3.87610        -1.74035
C          2.79393         1.98379        -2.36142
C          2.52135         4.41250        -0.99565
C          1.23352         6.54141        -0.57283
C          1.21935         7.91558        -0.36803
C          2.42759         5.79380        -0.50832
C          2.41188         8.63291        -0.08548
C          1.32855        10.86500        -0.30255
C          1.24814        12.19272        -0.02360
C          2.44588        10.05266         0.10495
C          2.20609        12.80618         0.90717
C          1.04521        14.99688         0.48236
C          1.14876        16.13643        -0.22779
C          2.23347        14.33108         1.12790
C          2.42423        16.81210        -0.38080
C          2.47618        18.08268        -1.06773
C          3.88373         2.45640        -1.58888
C          3.73367         3.67589        -0.86501
C          5.12575         1.71576        -1.77485
C          4.73123         4.27420         0.14118
C          3.62586         6.48451        -0.14101
C          3.61891         7.89724         0.05916
C          4.83584         5.76397        -0.00448
C          4.83157         8.56804         0.39586
C          3.62489        10.67025         0.62676
C          3.48802        12.04252         1.16331
C          4.81909         9.94954         0.77068
C          4.70138        12.86690         1.61570
C          3.57571        14.91010         0.68744
C          3.58495        16.23014         0.11059
C          4.76553        14.23169         0.92387
C          4.84500        17.04780         0.20555
C          3.66319        18.71020        -1.30437
C          4.90498        18.17348        -0.80058
C          6.20859         1.74743        -0.92599
C          6.08135         3.63191         0.18923
C          7.56558         1.45342        -1.21660
C          7.30578         4.23640         0.10816
C          6.06838         6.44151         0.09979
C          6.04951         7.84326         0.30503
C          7.33027         5.70198         0.13933
C          7.29198         8.61636         0.26182
C          6.05699        10.52354         1.45589
C          6.03624        12.06389         1.59060
C          7.33630         9.99060         0.77243
C          7.34018        12.78237         1.41663
C          6.03958        14.88395         0.66380
C          6.09417        16.19894         0.24425
C          7.34556        14.10365         0.66101
C          7.36187        16.86769        -0.02918
C          6.10771        18.73001        -1.12675
C          7.36156        18.15903        -0.67806
C          8.64970         2.16172        -0.64800
C          8.58212         3.50260        -0.03348
C          9.92007         1.57839        -0.85555
C          9.76805         4.17936         0.23598
C          8.52329         6.35239         0.33054
C          8.61089         7.80821         0.22255
C          9.72178         5.58514         0.82313
C          9.84030         8.51489         0.57649
C          8.55996        10.62148         0.80355
C          8.67094        12.00784         1.39498
C          9.80680         9.89502         0.64364
C          9.83130        12.82203         0.86798
C          8.55741        14.96270         1.07166
C          8.57285        16.27708         0.32198
C          9.83696        14.18101         0.84383
C          9.81695        16.93725         0.07159
C          8.55598        18.81791        -0.90985
C          9.80738        18.24129        -0.53459
C         11.12256         2.20312        -0.49157
C         11.06868         3.56378         0.03813
C         12.34429         1.51898        -0.58822
C         12.25084         4.20432         0.35379
C         11.01676         6.37134         0.71881
C         11.06681         7.74880         0.74449
C         12.24804         5.57757         0.90295
C         12.32867         8.47844         0.97771
C         11.10031        10.61697         0.65847
C         11.11526        12.10759         0.68164
C         12.33089         9.88766         0.98792
C         12.36854        12.83488         1.02611
C         11.09609        14.91284         0.73133
C         11.05464        16.31496         0.37820
C         12.30913        14.27521         0.95344
C         12.27911        17.00315         0.14216
C         11.01773        18.90667        -0.77564
C         12.25129        18.31373        -0.43099
C         13.58505         2.14017        -0.27371
C         13.56961         3.64621        -0.12346
C         14.76701         1.43973        -0.33985
C         14.79937         4.26402         0.50654
C         13.55222         6.30472         1.09166
C         13.53960         7.76823         1.13341
C         14.82978         5.59809         0.82056
C         14.82579         8.45836         1.34734
C         13.46408        10.66958         1.63449
C         13.52755        12.13934         1.25349
C         14.82445         9.95067         1.55247
C         14.81144        12.88103         1.56577
C         13.54704        15.09546         1.23021
C         13.53237        16.40679         0.47534
C         14.82391        14.30563         1.03397
C         14.72482        17.09356         0.26375
C         13.48184        18.99726        -0.62159
C         14.68792        18.41936        -0.26736
C         16.05162         2.03892         0.06103
C         16.05733         3.49365         0.51131
C         17.31233         1.50087        -0.45141
C         17.32365         4.23823         0.46261
C         16.08160         6.33773         0.90137
C         16.08994         7.74338         1.00759
C         17.31610         5.64348         0.68685
C         17.30745         8.46989         0.92786
C         16.04463        10.71626         1.19384
C         16.04245        12.08973         1.17860
C         17.30314         9.98231         0.74555
C         17.25966        12.83073         0.92316
C         15.99056        14.95007         0.75146
C         16.01557        16.47599         0.79026
C         17.25178        14.20941         0.69292
C         17.26841        17.08549         0.15537
C         15.92570        19.28441        -0.37072
C         17.21093        18.48478        -0.42135
C         18.49173         2.18530        -0.30757
C         18.52102         3.55403         0.19085
C         19.73935         1.60021        -0.78682
C         19.75352         4.26602         0.26857
C         18.54884         6.35968         0.71636
C         18.53614         7.78730         0.83720
C         19.76571         5.62841         0.55449
C         19.80719         8.51812         0.79568
C         18.55163        10.62858         1.37241
C         18.55007        12.13401         1.12455
C         19.82293         9.93492         0.89263
C         19.81579        12.86103         0.74080
C         18.43777        14.87097         0.19563
C         18.37672        16.21030        -0.28513
C         19.64979        14.14391         0.02368
C         19.41082        16.72907        -1.09412
C         18.19593        18.85266        -1.43142
C         19.29838        18.04645        -1.69309
C         20.92217         2.22650        -0.65869
C         21.07291         3.54766         0.04785
C         22.03894         4.46392        -0.67015
C         21.10958         6.31241         0.68083
C         21.02648         7.81831         0.66690
C         22.04039         5.77136        -0.39409
C         22.23736         8.52062         0.65440
C         21.03735        10.62613         0.74789
C         21.15905        12.14197         0.68207
C         22.24168         9.90846         0.65545
C         21.95281        12.54690        -0.53725
C         20.65545        14.61026        -0.83868
C         20.53539        15.90711        -1.44352
C         21.75422        13.71841        -1.17059
C         21.51237        16.40954        -2.33268
C         20.29946        18.48416        -2.61453
C         21.38576        17.67990        -2.91066
O          6.77927        12.62155         2.73634
O          2.39570        12.06535         2.14992
O         16.07780         2.39452         1.50006
O          8.00768         8.37416        -0.99105
O          5.99887         2.25212         0.38037
O         12.83011         5.69082         2.26105
O         11.24279        11.42705        -0.62394
O         19.33844        12.87961         2.13223
O         17.77185        18.23867         0.93492
O         14.98538         9.06763         2.71623
O          4.77729        17.71458         1.51926
H          4.63956        17.01417         2.19304
O         21.68317         5.95939         1.96982
H         21.80735         4.97602         1.97319
O          9.06252        11.75866         2.78030
H          8.87414        12.57286         3.29647
O         18.47250        10.41462         2.79336
H         18.96940        11.14092         3.23032
O          6.07717         9.97703         2.79786
H          6.74673        10.49559         3.29984
O          4.12565         4.03150         1.45812
H          4.27463         3.08214         1.66155
O          8.43182        15.23877         2.48806
H          9.14373        15.86277         2.74137
O         15.96653        20.18291         0.74794
H         16.55997        19.77763         1.41921
O          9.52514         5.43139         2.27228
H         10.38203         5.15061         2.66171
O         14.86273        13.03041         3.01504
H         14.20182        13.72515         3.25642
O         13.51294        15.44614         2.66132
H         14.31421        16.00603         2.82036
O         17.43656        10.21506        -0.69137
H         16.73222         9.71492        -1.15413
O          2.11566        14.59444         2.54294
H          2.80677        14.03976         2.99035
O          4.45222        13.19858         3.00852
H          4.43029        12.36110         3.51840
O         16.03925        16.79152         2.21892
H         16.68142        17.53308         2.33199
O         21.93507        12.58331         1.82792
H         21.29571        12.72108         2.56302
O         13.05666        10.68573         3.03635
H         13.57869         9.97393         3.48458
O          7.55224        13.68381        -0.71735
H          7.65561        14.48885        -1.26843
O         13.66302         4.13467        -1.52868
H         12.96095         3.67431        -2.03844
O         21.65411         3.25581         1.36654
H         21.01138         2.69541         1.85139
H          0.73936         2.25007        -2.97966
H          0.50811         4.43266        -1.83606
H          2.91898         1.05175        -2.93101
H          0.28093         6.04326        -0.79954
H          0.26108         8.44941        -0.42791
H          0.55676        10.40618        -0.93692
H          0.45418        12.80689        -0.47115
H          0.05447        14.56910         0.69465
H          0.25265        16.61778        -0.64766
H          1.53778        18.50183        -1.45890
H          5.23510         1.18635        -2.73369
H          3.69920        19.62301        -1.91762
H          7.79597         0.68505        -1.97090
H          6.14562        19.62877        -1.76197
H          9.96573         0.57139        -1.29669
H          8.55014        19.80302        -1.39940
H         12.33835         0.45418        -0.86590
H         11.00736        19.90578        -1.23537
H         14.75304         0.37657        -0.62715
H         13.46898        20.02241        -1.01999
H         17.29996         0.53288        -0.97532
H         15.84797        19.90770        -1.30158
H         19.68388         0.61109        -1.26710
H         18.05375        19.78671        -1.99448
H         21.84371         1.74416        -1.01871
H         22.72961         4.03193        -1.41044
H         22.74331         6.45141        -0.89916
H         23.18744         7.96963         0.63808
H         23.19497        10.45332         0.62751
H         22.78550        11.89983        -0.84869
H         22.41849        13.98799        -2.00334
H         22.39101        15.80393        -2.58869
H         20.20010        19.47896        -3.07115
H         22.15893        18.03537        -3.60603
