         200
 CSIRO Nanostructure Databank - Neutral Graphene Oxide Data Set
C        -11.09683         0.68093        -0.69817
C         -9.88103         1.45369        -0.56009
C         -8.56955         0.72851        -0.76652
C         -7.39822         1.44764        -0.14869
C         -6.20172         0.69315         0.13492
C         -5.01843         1.36036         0.52824
C         -3.78530         0.66573         0.64209
C         -2.52866         1.38613         0.69043
C         -1.29387         0.66685         0.58177
C         -0.06303         1.37557         0.47440
C          1.17829         0.65912         0.38608
C          2.41610         1.38604         0.27054
C          3.64980         0.66735         0.19092
C          4.86623         1.37189        -0.02828
C          6.10823         0.65601        -0.09337
C          7.36432         1.38554        -0.25640
C          8.59702         0.69868        -0.33071
C          9.81814         1.40066        -0.46783
C         11.06054         0.63573        -0.46354
C         -9.89349         2.81341        -0.41576
C         -8.66447         3.58055        -0.28107
C         -7.42862         2.83038        -0.04355
C         -6.26321         3.56891         0.37913
C         -5.07770         2.80184         0.79723
C         -3.74146         3.55468         0.88493
C         -2.50241         2.79389         0.69237
C         -1.28697         3.51267         0.51829
C         -0.05809         2.79950         0.42978
C          1.17220         3.52567         0.32884
C          2.42052         2.79938         0.22815
C          3.64166         3.50544        -0.00714
C          4.83540         2.78064        -0.19245
C          6.07197         3.47490        -0.57752
C          7.35920         2.78508        -0.42245
C          8.57385         3.52094        -0.51347
C          9.79659         2.80842        -0.51278
C         -8.65377         4.94791        -0.29649
C         -7.37794         5.75050        -0.25771
C         -6.21707         4.95410         0.33135
C         -4.98494         5.67861         0.52399
C         -3.75298         4.98785         0.59656
C         -2.52746         5.67090         0.42055
C         -1.29115         4.94094         0.41876
C         -0.06805         5.64587         0.29112
C          1.16045         4.92796         0.30770
C          2.44533         5.68699         0.49873
C          3.66199         4.95217        -0.00512
C          4.81726         5.67094        -0.23633
C          6.06666         4.99097        -0.61892
C          7.35783         5.69570        -0.46405
C          8.53747         4.96812        -0.50739
C         -7.48561         7.03649         0.49983
C         -6.25483         7.84677         0.77271
C         -4.97459         7.09972         0.46006
C         -3.76911         7.79081         0.28474
C         -2.52823         7.08279         0.23815
C         -1.29408         7.77792         0.05686
C         -0.07744         7.07266         0.09018
C          1.17260         7.76643        -0.12432
C          2.37976         7.11142         0.00481
C          3.62902         7.82066        -0.13387
C          4.83575         7.11876        -0.16497
C          6.10183         7.81602        -0.21686
C          7.30554         7.12017        -0.30319
C         -6.23066         9.23550         0.15659
C         -5.06693         9.88573        -0.05493
C         -3.76838         9.23273         0.08409
C         -2.58326         9.91013        -0.07635
C         -1.30328         9.22882        -0.11294
C         -0.13310         9.90705        -0.34871
C          1.14808         9.18174        -0.65852
C          2.41246         9.93704        -0.33141
C          3.60875         9.27309        -0.20073
C          4.88975         9.95248        -0.12697
C          6.06423         9.26169        -0.13871
C        -11.08236        -0.67913        -0.76998
C         -9.85729        -1.44720        -0.61679
C         -8.62489        -0.74728        -0.44468
C         -7.44759        -1.45232        -0.16918
C         -6.20695        -0.73189         0.08173
C         -5.02395        -1.43349         0.38786
C         -3.78784        -0.75594         0.56897
C         -2.53395        -1.48309         0.57552
C         -1.30002        -0.76130         0.54388
C         -0.06733        -1.47041         0.41611
C          1.17994        -0.74967         0.36701
C          2.42734        -1.46933         0.33377
C          3.66047        -0.75570         0.29181
C          4.89809        -1.46247         0.27258
C          6.10653        -0.73020         0.09874
C          7.39204        -1.44869         0.19573
C          8.58708        -0.77274        -0.38402
C          9.87913        -1.54431        -0.46037
C         11.10416        -0.72084        -0.41312
C         -9.88154        -2.84462        -0.58833
C         -8.68919        -3.59398        -0.39919
C         -7.46655        -2.88756        -0.15054
C         -6.28012        -3.62327         0.09284
C         -5.07922        -2.89606         0.52238
C         -3.75873        -3.66166         0.56673
C         -2.51182        -2.89067         0.46453
C         -1.29244        -3.59162         0.26817
C         -0.07801        -2.87568         0.28069
C          1.19253        -3.60877        -0.03993
C          2.44973        -2.88218         0.35271
C          3.66613        -3.57600         0.45857
C          4.91082        -2.89271         0.40024
C          6.12935        -3.65030         0.38265
C          7.42161        -2.93777         0.36396
C          8.67891        -3.68119         0.06437
C          9.86126        -2.98893        -0.13553
C         -8.67261        -5.01151        -0.43024
C         -7.47690        -5.73628        -0.29393
C         -6.24785        -5.02978        -0.03736
C         -4.99815        -5.74608        -0.04017
C         -3.77336        -5.06356         0.13206
C         -2.52660        -5.70380        -0.10257
C         -1.30663        -5.02590         0.03491
C         -0.05563        -5.76286         0.08307
C          1.13044        -5.05933         0.33173
C          2.33777        -5.78875         0.68614
C          3.67112        -5.02701         0.73739
C          4.91078        -5.79165         0.51939
C          6.13299        -5.05691         0.35644
C          7.38204        -5.78699         0.23495
C          8.60132        -5.10708         0.08855
C         -7.44753        -7.16313        -0.41273
C         -6.25012        -7.87221        -0.40925
C         -4.99533        -7.16778        -0.29267
C         -3.78945        -7.86543        -0.45420
C         -2.53320        -7.11249        -0.52404
C         -1.21757        -7.89076        -0.47076
C         -0.02951        -7.19034         0.01356
C          1.16862        -7.92829         0.24624
C          2.35358        -7.24439         0.55422
C          3.63091        -7.93312         0.75314
C          4.89689        -7.18798         0.55680
C          6.12144        -7.90979         0.32865
C          7.32138        -7.21316         0.19906
C         -6.20446        -9.30343        -0.58656
C         -5.01992        -9.98050        -0.65943
C         -3.75276        -9.29312        -0.59134
C         -2.53779        -9.99884        -0.57657
C         -1.27285        -9.36534        -0.40690
C         -0.07520       -10.05109        -0.23194
C          1.17009        -9.37832         0.03088
C          2.37168       -10.07255         0.03293
C          3.63171        -9.46519         0.45493
C          4.92299       -10.05444         0.05780
C          6.07672        -9.34284         0.09034
O          7.61081        -2.02833         1.52757
O          3.63366        -8.92786         1.81856
O          5.96030         4.20982        -1.85554
O         -7.00687         6.05533        -1.64627
H         -6.93845         5.20411        -2.12782
O          2.62909         5.77514         1.96417
H          1.84251         6.23447         2.32833
O         -6.24928         8.08713         2.22173
H         -5.49974         8.68764         2.41987
O         -4.50480         3.18643         2.08485
O          2.96526        -5.34427         1.98023
O         -8.32676         0.78123        -2.22500
H         -9.07865         0.32165        -2.65640
O         -4.52511        -3.39430         1.78966
O          1.15959         9.05280        -2.13879
H          1.97072         8.55346        -2.37578
O         -1.74211        -7.35262        -1.74035
O          1.27271        -3.62896        -1.53107
H          0.43411        -4.02012        -1.86049
O          9.03816        -1.29097        -1.67738
H         12.07399        -1.23426        -0.32723
H         12.00286         1.20462        -0.45176
H         10.74441         3.36361        -0.57819
H          9.49782         5.50413        -0.45293
H          8.25271         7.68074        -0.27170
H          7.02090         9.80481        -0.11610
H          4.89547        11.05217        -0.09826
H          2.39945        11.03598        -0.39875
H         -0.15379        10.99919        -0.48699
H         -2.59652        10.99628        -0.25527
H         -5.07577        10.93196        -0.39934
H         -7.18883         9.75750         0.01742
H         -8.29841         7.13325         1.23743
H         -9.59614         5.49181        -0.46590
H        -10.85162         3.35596        -0.38745
H        -12.05421         1.22293        -0.73458
H        -12.02629        -1.23311        -0.88054
H        -10.83489        -3.37495        -0.73138
H         -9.61403        -5.55340        -0.60603
H         -8.39667        -7.70173        -0.55514
H         -7.15628        -9.85008        -0.66064
H         -5.01678       -11.07393        -0.77984
H         -2.56829       -11.09833        -0.62198
H         -0.07326       -11.15124        -0.26286
H          2.39226       -11.11432        -0.32277
H          4.93269       -11.10645        -0.26564
H          7.02323        -9.83556        -0.17931
H          8.25346        -7.77580         0.03801
H          9.52313        -5.69044        -0.05675
H         10.80684        -3.54779        -0.21464
