         234
 CSIRO Nanostructure Databank - Neutral Graphene Oxide Data Set
C          1.28833         2.22849        -1.27080
C          1.28016         3.62012        -1.11023
C          2.45736         1.50260        -1.09491
C          2.45002         4.32158        -0.76040
C          1.29235         6.55523        -0.74734
C          1.28491         7.93004        -0.51732
C          2.45474         5.76998        -0.57366
C          2.44153         8.59137        -0.07057
C          1.21417        10.81479         0.37464
C          1.21835        12.01718         0.97020
C          2.53019        10.10875         0.13508
C          2.46684        12.74987         1.31405
C          1.18056        14.98593         0.81516
C          1.19264        16.27259         0.39029
C          2.43111        14.29707         1.16847
C          2.43061        16.99751         0.24369
C          2.39747        18.39598        -0.07561
C          3.66374         2.16536        -0.75003
C          3.65690         3.58775        -0.57286
C          4.86872         1.43789        -0.58804
C          4.87812         4.25519        -0.21839
C          3.65513         6.42217        -0.18233
C          3.61730         7.82417         0.06123
C          4.88532         5.66274        -0.00592
C          4.79657         8.45054         0.63540
C          3.46308        10.51255         1.30807
C          3.76632        12.04755         1.22216
C          4.63877         9.59589         1.34639
C          4.95584        12.79165         1.22891
C          3.70979        14.94895         0.84276
C          3.65957        16.33843         0.41937
C          4.91061        14.24410         0.97997
C          4.87038        17.08208         0.16199
C          3.54316        19.13578        -0.19552
C          4.83143        18.50873        -0.09178
C          6.08453         2.08324        -0.29314
C          6.09320         3.52020        -0.10724
C          7.28675         1.35459        -0.16670
C          7.31606         4.18919         0.15970
C          6.11125         6.29516         0.33604
C          6.10234         7.77491         0.42438
C          7.32596         5.58896         0.37081
C          7.39792         8.50206         0.50073
C          6.52364        10.68593         1.36809
C          6.33302        12.15536         1.30304
C          7.48747         9.97288         0.74654
C          7.55300        12.86450         0.78635
C          6.14909        15.03452         0.69947
C          6.08967        16.41957         0.16864
C          7.45574        14.32867         0.51051
C          7.30986        17.13010        -0.15022
C          6.01705        19.23516        -0.18137
C          7.29270        18.58620        -0.22221
C          8.53487         1.99890         0.06072
C          8.56796         3.45909         0.13957
C          9.70228         1.26710         0.21656
C          9.78718         4.12524         0.03488
C          8.65515         6.22226         0.78100
C          8.68550         7.74141         0.64481
C          9.86046         5.55765         0.10502
C          9.90397         8.44603         0.15302
C          8.56619        10.65269         0.00447
C          8.67251        12.12006         0.13961
C          9.79045         9.84805        -0.35745
C          9.75893        12.75686        -0.38489
C          8.49597        14.97815        -0.32981
C          8.50984        16.44729        -0.32985
C          9.74923        14.22029        -0.65296
C          9.75245        17.10806        -0.72030
C          8.49359        19.29865        -0.27379
C          9.76202        18.65759        -0.61015
C         11.01851         1.94158         0.51208
C         11.01275         3.29228        -0.31277
C         12.20267         1.07008         0.14177
C         12.27107         4.14423        -0.25829
C         11.01239         6.26427        -0.27766
C         11.10665         7.69085        -0.26380
C         12.15081         5.50400        -0.94131
C         12.26995         8.42291        -0.58399
C         11.05111        10.56511        -0.58753
C         10.96236        12.00700        -0.80166
C         12.26123         9.88537        -0.59643
C         12.28813        12.78140        -0.68506
C         11.01067        14.98131        -0.58479
C         11.02609        16.36493        -0.53419
C         12.20375        14.20206        -0.22961
C         12.26220        17.09375        -0.35652
C         11.07077        19.27882        -0.35792
C         12.25260        18.55338        -0.33071
C         13.49600         1.49257         0.45643
C         13.43726         3.73610         0.28072
C         14.74122         1.03262         0.03001
C         14.76762         4.29470        -0.00586
C         13.48497         6.28362        -0.99267
C         13.51195         7.75852        -0.85979
C         14.79887         5.59992        -0.71331
C         14.73761         8.44941        -0.84058
C         13.51269        10.62056        -0.55968
C         13.50259        12.01318        -0.42222
C         14.76988         9.89866        -0.65095
C         14.70618        12.74035         0.00546
C         13.49425        14.95465         0.02577
C         13.47026        16.41016        -0.16373
C         14.76458        14.21914        -0.04005
C         14.73166        17.08764        -0.09015
C         13.52300        19.22360        -0.21421
C         14.72723        18.54293        -0.13464
C         16.00673         1.85913        -0.19883
C         15.98218         3.42017        -0.08062
C         17.19971         1.41656         0.63808
C         17.25771         4.11816        -0.52350
C         16.06393         6.35580        -0.70348
C         15.99567         7.73496        -0.87944
C         17.29529         5.61215        -0.64202
C         17.25047         8.46316        -1.13215
C         15.97087        10.60580        -0.64534
C         16.02812        11.98239        -0.13479
C         17.25085         9.95913        -1.00095
C         17.27534        12.78056        -0.19440
C         15.96345        14.91603         0.01267
C         15.92234        16.36478         0.05857
C         17.24444        14.19772        -0.03042
C         17.17894        17.10904         0.24372
C         15.98662        19.24414        -0.10385
C         17.18434        18.57694         0.02858
C         18.35519         2.13730         0.68800
C         18.50943         3.41357        -0.07395
C         19.42949         1.74843         1.59932
C         19.77122         4.20539         0.07314
C         18.52708         6.27329        -0.66013
C         18.56670         7.71820        -0.98535
C         19.75920         5.63860        -0.25681
C         19.79434         8.47809        -0.71611
C         18.52928        10.67141        -0.66809
C         18.49869        12.10655        -0.28204
C         19.71635         9.87158        -0.16645
C         19.73488        12.79436        -0.20005
C         18.46790        14.89278        -0.01426
C         18.47696        16.36168         0.19225
C         19.71878        14.21652        -0.09358
C         19.69359        17.11223        -0.30505
C         18.45059        19.25310         0.09500
C         19.65792        18.57944         0.06952
C         20.55429         2.47193         1.79767
C         20.85922         3.69357         1.01927
C         21.82434         4.68799         1.48591
C         20.92861         6.38070        -0.05724
C         21.08189         7.71909        -0.79146
C         21.92681         5.89823         0.85205
C         22.28035         8.52914        -0.39471
C         21.01066        10.64103        -0.26904
C         20.98771        12.05697        -0.23425
C         22.22803         9.88069        -0.23691
C         22.18646        12.82830        -0.19444
C         20.96426        14.94950        -0.03481
C         20.97801        16.38741         0.03749
C         22.16931        14.20533        -0.08429
C         22.12132        17.13596         0.27589
C         20.90127        19.25781         0.25452
C         22.08516        18.55564         0.34334
O          2.36553        13.62944         2.46883
O          6.77586         8.29018        -0.81732
O          9.59712         8.35982         1.60951
O         17.94781         7.99013        -2.32380
O         14.25634         5.65793        -2.08584
O          8.73849        14.48787        -1.69739
O          8.76536        10.13239        -1.35818
O         18.08110         3.40182        -1.48928
O         13.51725         2.69288         1.21439
O          9.69783        17.94212        -1.90838
O         15.35998        12.13935         1.16890
O          7.35506        12.67395         2.23511
O         15.64112         4.11286         1.16511
O          5.65001        10.00248         2.22600
O          7.20382        15.04723         1.74981
O         20.92734         3.47651        -0.43352
O         18.08970        10.55918        -2.05448
O         11.65708        12.53951        -1.97032
O         12.64617        14.43870         1.13910
O         17.94297        16.75651         1.48189
O          3.15599        10.65412        -1.05714
H          2.69694        10.29048        -1.84260
O         21.30968         7.35750        -2.19561
H         20.44541         7.09931        -2.58311
O          2.73865        10.31741         2.54417
H          3.34144        10.54287         3.28403
O         19.58399        17.06101        -1.76709
H         20.37856        17.49770        -2.14026
O         16.27097         1.55780        -1.58937
H         17.12106         1.99404        -1.85225
O         19.42627         9.72221         1.29146
H         20.24740         9.40035         1.72157
O         11.73447         5.33377        -2.32650
H         12.55979         5.24613        -2.85920
O          8.78236         5.93223         2.20077
H          9.39985         6.60483         2.57036
O         11.02153         2.25234         1.91980
H         11.93928         2.52745         2.15523
O         10.88091         2.87441        -1.69119
H         10.98482         3.69095        -2.24520
H          0.35695         1.71144        -1.54071
H          0.33501         4.15872        -1.26001
H          2.46119         0.41121        -1.22636
H          0.35522         6.08175        -1.06942
H          0.34848         8.48480        -0.67103
H          0.26041        10.33742         0.10667
H          0.26448        12.51271         1.19992
H          0.22413        14.47562         0.98847
H          0.24915        16.79691         0.17975
H          1.41534        18.87786        -0.18955
H          4.85703         0.34595        -0.72296
H          3.49098        20.21431        -0.40297
H          7.26103         0.25792        -0.25508
H          5.97351        20.32917        -0.28903
H          9.66417         0.16889         0.13963
H          8.48422        20.38513        -0.09669
H         12.05233         0.20104        -0.51486
H         11.10837        20.36780        -0.19979
H         14.75595         0.08791        -0.53546
H         13.53019        20.32414        -0.22291
H         17.12369         0.48871         1.22586
H         15.97934        20.33970        -0.20806
H         19.26468         0.83529         2.19100
H         18.44940        20.34942         0.20195
H         21.28716         2.14732         2.55156
H         22.49311         4.43653         2.32189
H         22.73215         6.58742         1.14636
H         23.25952         8.03019        -0.41939
H         23.17766        10.41613        -0.08930
H         23.16107        12.32505        -0.24392
H         23.13117        14.73605        -0.06021
H         23.08239        16.63784         0.46652
H         20.89542        20.34936         0.39022
H         23.02462        19.09584         0.52557
