         638
 CSIRO Nanostructure Databank - Neutral Graphene Oxide Data Set
C         23.08191        69.64238        -1.48136
C         23.10301        70.98138        -1.93470
C         21.94312        71.58518        -2.50004
C         23.15491        73.66175        -2.79450
C         21.97807        72.89518        -2.93379
C         25.25676        65.66972         0.57762
C         25.35073        67.08200         0.02488
C         24.21364        67.68924        -0.48480
C         25.46426        69.77788        -0.89636
C         24.23494        69.03690        -0.95424
C         25.49649        71.13753        -1.30510
C         24.30448        71.75246        -1.81553
C         25.51029        73.99033        -2.01897
C         24.30288        73.11071        -2.23529
C         27.83903        61.41851         0.17265
C         27.82582        62.80480         0.20365
C         26.58241        63.55102         0.19398
C         27.79255        65.61609         0.72308
C         26.54578        64.89099         0.43941
C         27.80301        67.15493         0.55378
C         26.58168        67.79776         0.05230
C         27.89110        69.85685        -0.41639
C         26.64971        69.13224        -0.42759
C         27.92596        71.22120        -0.83079
C         26.72663        71.87169        -1.25537
C         27.97923        73.91853        -1.69731
C         26.77512        73.24089        -1.66746
C         30.35373        57.14615         0.59936
C         30.31975        58.56015         0.44805
C         29.09599        59.27695         0.33801
C         30.30424        61.41249         0.17505
C         29.06486        60.67587         0.22873
C         30.31574        62.81959         0.25859
C         29.07310        63.54143         0.33433
C         30.31515        65.66808         0.95106
C         29.06163        64.91114         0.58670
C         30.29834        67.11755         0.49271
C         29.10388        67.81795         0.31682
C         30.34067        69.91885        -0.08450
C         29.11016        69.20096        -0.06355
C         30.37361        71.31962        -0.40982
C         29.16307        71.94039        -0.82649
C         30.42782        73.96823        -1.36022
C         29.19747        73.29436        -1.28888
C         32.83370        52.85823         0.85369
C         32.80778        54.26309         0.75409
C         31.58700        54.99199         0.71278
C         32.83405        57.12437         0.79384
C         31.54716        56.39798         0.69578
C         32.83177        58.61446         0.54196
C         31.54553        59.30495         0.31250
C         32.77734        61.42439        -0.19179
C         31.53181        60.67889         0.10916
C         32.80040        62.88139         0.06790
C         31.56413        63.55706         0.30618
C         32.78532        65.66794         0.45670
C         31.57046        64.94670         0.52662
C         32.78234        67.10476         0.46675
C         31.53920        67.80740         0.37635
C         32.78706        69.92468         0.17995
C         31.55206        69.21231         0.15471
C         32.77584        71.35256         0.07504
C         31.59873        72.06259        -0.33919
C         32.83797        74.15006        -1.17136
C         31.63954        73.41201        -0.88398
C         35.28422        48.56521         1.01286
C         35.24935        49.96573         1.10446
C         34.05380        50.70888         0.97735
C         35.30545        52.84706         0.82690
C         34.04213        52.12194         0.91915
C         35.28819        54.25642         0.65509
C         34.07567        54.97860         0.66300
C         35.31783        57.10888         0.34809
C         34.09457        56.39106         0.61241
C         35.26580        58.54428         0.07985
C         34.09032        59.23619         0.09033
C         35.33228        61.41970        -0.03448
C         34.08221        60.67755        -0.26120
C         35.31504        62.90272        -0.27731
C         34.01099        63.57467         0.09263
C         35.25900        65.69904         0.35285
C         34.02018        64.98062         0.28611
C         35.25133        67.09921         0.47778
C         34.00602        67.81170         0.43868
C         35.26490        69.94212         0.40437
C         34.01350        69.23721         0.37194
C         35.26239        71.37729         0.33024
C         33.99750        72.00031         0.37079
C         35.38801        74.17935        -0.90254
C         34.06351        73.94184        -0.51587
C         37.80308        44.28559         0.77464
C         37.77404        45.66588         0.91066
C         36.53642        46.41144         0.91541
C         37.76307        48.51391         1.41430
C         36.48275        47.78852         1.08283
C         37.72690        49.95467         0.85130
C         36.52632        50.73179         1.41505
C         37.76861        52.78641         0.53417
C         36.52760        52.15298         0.89756
C         37.69744        54.19240        -0.04213
C         36.60737        54.98906         0.68405
C         37.74666        57.08447        -0.34232
C         36.51267        56.41779         0.22126
C         37.78739        58.55966        -0.03616
C         36.51621        59.28787        -0.35408
C         37.72185        61.37031         0.50607
C         36.51453        60.72252         0.11895
C         37.61725        62.80694         0.96424
C         36.51650        63.59864         0.29578
C         37.71555        65.68910         0.84177
C         36.50421        64.96725         0.47073
C         37.68288        67.10339         0.87345
C         36.48474        67.81538         0.64476
C         37.71546        69.99215         0.64332
C         36.47818        69.25043         0.58837
C         37.71466        71.41392         0.36344
C         36.48287        72.12249         0.18044
C         37.77948        74.09216        -0.51540
C         36.52035        73.48343        -0.34230
C         40.25781        39.99455         0.19222
C         40.24112        41.43074         0.31906
C         39.03901        42.14988         0.50199
C         40.28244        44.25297         0.67384
C         39.03631        43.55247         0.65451
C         40.30983        45.67670         0.88974
C         39.04093        46.39405         0.97517
C         40.26165        48.54283         1.13517
C         39.01253        47.76812         1.01046
C         40.24929        49.93535         0.53955
C         39.05183        50.71720         1.11577
C         40.21432        52.72957        -0.02821
C         38.96736        52.11398         0.55316
C         40.20335        54.23047         0.06268
C         39.02486        54.92694         0.02239
C         40.21408        57.09571         0.11366
C         39.02089        56.36819        -0.00980
C         40.21303        58.52827         0.30123
C         38.94813        59.23793         0.26469
C         40.17331        61.32785         0.89659
C         38.94623        60.67354         0.56184
C         40.09240        62.71482         1.53223
C         38.98739        63.49729         0.78019
C         40.17305        65.67591         1.10165
C         38.93933        64.98567         1.03977
C         40.18751        67.10703         1.02860
C         38.91008        67.86083         1.30664
C         40.16945        69.99088         0.82018
C         38.92002        69.30505         0.85731
C         40.19337        71.41918         0.54993
C         38.96173        72.08996         0.26634
C         40.23413        74.12875        -0.30677
C         38.99437        73.46297        -0.16001
C         42.69775        35.72522        -0.08516
C         42.65487        37.11770         0.18422
C         41.47141        37.83506         0.07448
C         42.72178        39.95743         0.18239
C         41.44699        39.26559         0.17757
C         42.71318        41.41595        -0.17634
C         41.46965        42.14342         0.26559
C         42.75889        44.25217         0.43807
C         41.49876        43.54126         0.46419
C         42.78429        45.68227         0.68500
C         41.53372        46.35004         0.99421
C         42.83216        48.57864         1.12511
C         41.55504        47.80118         1.25370
C         42.77774        50.01577         0.78198
C         41.55079        50.68931         0.65329
C         42.72246        52.79870         0.39267
C         41.51802        52.08184         0.42201
C         42.68918        54.29771         0.50880
C         41.50413        54.93041        -0.21419
C         42.66360        57.10660         0.16182
C         41.46814        56.40797         0.07771
C         42.66754        58.53498         0.34877
C         41.41150        59.22978         0.47560
C         42.64458        61.34699         0.93405
C         41.40529        60.65013         0.78244
C         42.68095        62.75989         1.16391
C         41.44933        63.50869         1.64663
C         42.63164        65.63399         1.11937
C         41.41951        64.95232         1.17720
C         42.64966        67.07355         0.92284
C         41.38432        67.80430         0.87768
C         42.64351        69.95663         0.94454
C         41.36531        69.24546         0.86437
C         42.66375        71.47621         0.83902
C         41.40695        72.13723         0.48348
C         42.69901        74.16572        -0.21242
C         41.45585        73.49226        -0.00232
C         45.10573        32.91073        -0.54150
C         43.89984        33.61778        -0.43650
C         45.16501        35.60608         0.42959
C         43.88013        34.98378        -0.08135
C         45.18306        37.10967         0.32655
C         43.90192        37.81666         0.70159
C         45.17570        39.97805         0.31574
C         43.91464        39.28213         0.33995
C         45.17299        41.40030         0.31069
C         43.98242        42.11686         0.21037
C         45.23227        44.24442         0.24012
C         43.96995        43.54075         0.31832
C         45.20101        45.72337        -0.02572
C         43.98730        46.37673         0.59087
C         45.27920        48.57151         0.35829
C         44.11085        47.82052         0.86550
C         45.22136        49.98122         0.26890
C         43.99209        50.70273         0.51839
C         45.18641        52.82528         0.06834
C         43.96711        52.11433         0.35655
C         45.16631        54.25354        -0.05307
C         43.95866        54.97702         0.07437
C         45.09813        57.13105        -0.19624
C         43.92687        56.39958        -0.00352
C         45.11809        58.54561         0.06374
C         43.87995        59.23491         0.38301
C         45.10786        61.30615         0.86632
C         43.89435        60.64849         0.70262
C         45.16778        62.69160         1.45039
C         43.88803        63.46062         1.19403
C         45.10979        65.60200         1.21502
C         43.90976        64.91185         1.20978
C         45.12181        67.10514         1.34697
C         43.85054        67.75669         0.86773
C         45.12995        69.89728         0.28955
C         43.79392        69.17470         0.34560
C         45.22855        71.39016         0.40786
C         43.96300        72.19830         0.58409
C         45.19039        74.15734        -0.30413
C         43.95677        73.55840         0.00218
C         46.33762        33.55681        -0.42066
C         47.58704        35.66279        -0.22493
C         46.40644        34.94008        -0.11898
C         47.62051        37.07904        -0.05210
C         46.36674        37.79373         0.18521
C         47.65038        39.91575         0.24313
C         46.41183        39.25063         0.27866
C         47.71651        41.37938         0.43721
C         46.42354        42.13593         0.72383
C         47.66925        44.28163        -0.05842
C         46.42623        43.57184         0.24475
C         47.70682        45.64093        -0.02824
C         46.48970        46.40443         0.44697
C         47.54909        48.48616        -0.57633
C         46.47504        47.85931         0.02873
C         47.46094        49.93301        -0.81516
C         46.35434        50.69054        -0.21693
C         47.59910        52.82704        -0.53977
C         46.37532        52.10952        -0.24731
C         47.59635        54.25948        -0.47478
C         46.38446        54.94276        -0.31313
C         47.59713        57.11021        -0.09505
C         46.35017        56.41371        -0.63029
C         47.58087        58.60234        -0.45598
C         46.32869        59.22939         0.11139
C         47.66729        61.32933         0.67948
C         46.36424        60.57268         0.68620
C         47.61599        62.80992         0.79114
C         46.43835        63.44756         1.13436
C         47.66264        65.64276         1.04355
C         46.43056        64.90493         1.51482
C         47.60710        67.06850         0.86468
C         46.39523        67.73640         0.82957
C         47.64156        70.01745         0.71267
C         46.41051        69.15903         0.44892
C         47.69476        71.21977        -0.24861
C         46.43723        72.04351        -0.10574
C         47.69914        74.09496        -0.49491
C         46.44596        73.44288        -0.27714
C         48.80864        37.78907        -0.19654
C         50.05298        39.90205        -0.40599
C         48.85963        39.21208        -0.09311
C         50.12609        41.31277        -0.48838
C         48.94452        42.09604        -0.04380
C         50.11319        44.22316        -0.74755
C         48.80253        43.47522        -0.64955
C         50.10950        45.59488        -0.77929
C         48.96610        46.43265        -0.25031
C         50.00701        48.46617        -1.33674
C         48.70815        47.66586        -1.14143
C         50.01199        49.97098        -1.38537
C         48.73021        50.72030        -1.20016
C         50.04700        52.83260        -0.98531
C         48.79583        52.14792        -0.85795
C         50.05820        54.28065        -0.87413
C         48.84602        54.98588        -0.63310
C         50.07680        57.11072        -0.50719
C         48.86883        56.39549        -0.49399
C         50.08256        58.56004        -0.29501
C         48.87866        59.27035        -0.07326
C         50.08595        61.38571         0.06852
C         48.89166        60.66338         0.16073
C         50.04835        62.88897        -0.04391
C         48.83815        63.53813         0.58949
C         50.08913        65.69138         0.34929
C         48.84165        64.93148         0.74947
C         50.08372        67.07408         0.93832
C         48.84672        67.83395         0.71326
C         50.16945        69.90141         0.51541
C         48.90366        69.20394         0.65310
C         50.17759        71.31115         0.09936
C         48.96223        72.01454        -0.06542
C         50.19627        74.08082        -0.44146
C         48.94837        73.41360        -0.34892
C         51.28709        42.01586        -0.80580
C         52.57540        44.12043        -0.85175
C         51.34976        43.45655        -0.86032
C         52.66899        45.54450        -1.15526
C         51.29562        46.33430        -1.20517
C         52.50314        48.51354        -1.12314
C         51.31004        47.80023        -1.11252
C         52.51178        49.96789        -1.15321
C         51.28694        50.69435        -1.19259
C         52.53045        52.80329        -1.58110
C         51.25572        52.10729        -1.15839
C         52.52459        54.31311        -1.34269
C         51.27401        55.00966        -0.96049
C         52.56331        57.09887        -0.51418
C         51.30123        56.40208        -0.70231
C         52.56184        58.54465        -0.34275
C         51.30615        59.26519        -0.28571
C         52.53250        61.42082        -0.17361
C         51.30964        60.69369        -0.15569
C         52.56444        62.80206         0.16778
C         51.35651        63.53947         0.33356
C         52.57644        65.62385         0.78977
C         51.38748        64.94690         0.57659
C         52.68766        67.08442         1.19113
C         51.35835        67.82562         1.15986
C         52.66347        69.74904         0.23891
C         51.35711        69.25238         0.77416
C         52.68750        71.17002        -0.35284
C         51.40610        71.96042        -0.12306
C         52.67129        74.05693        -0.43722
C         51.42065        73.37265        -0.35838
C         53.81357        46.38807        -0.86391
C         54.95603        48.53558        -0.76941
C         53.76504        47.78773        -0.94361
C         54.97982        49.94568        -0.82183
C         53.74992        50.68039        -1.02376
C         55.00745        52.79342        -0.91746
C         53.78868        52.09818        -1.08807
C         55.06886        54.22798        -0.85008
C         53.82543        55.01843        -1.05623
C         55.02483        57.04076        -0.20979
C         53.76059        56.39517        -0.54315
C         55.02220        58.56154        -0.13913
C         53.75363        59.25297        -0.32184
C         55.05614        61.40207        -0.16848
C         53.78651        60.72806        -0.61442
C         55.04868        62.77414         0.14324
C         53.82037        63.46563         0.30959
C         55.05900        65.62483         0.31418
C         53.87124        64.85934         0.88043
C         55.03100        67.12399         0.14269
C         53.74610        67.88481         0.41584
C         55.09266        69.94219         0.72967
C         53.91054        69.28457         0.94871
C         55.09731        71.37121         0.46582
C         53.91575        71.98427         0.06802
C         55.11423        74.13128        -0.06189
C         53.90056        73.40670        -0.16276
C         56.19927        50.64603        -0.71285
C         57.47541        52.74553        -0.65307
C         56.24702        52.05810        -0.74723
C         57.53748        54.16640        -0.57521
C         56.27003        54.88340        -0.58300
C         57.48364        57.02073        -0.39287
C         56.30747        56.32604        -0.43799
C         57.51085        58.49267        -0.73726
C         56.28155        59.28298        -0.35983
C         57.54243        61.40648        -0.18784
C         56.28652        60.67504        -0.26813
C         57.55134        62.74764         0.11299
C         56.31471        63.48597         0.28706
C         57.57733        65.61284         0.24909
C         56.34391        64.87302         0.40022
C         57.58236        67.07356         0.61377
C         56.31403        67.85748         0.36318
C         57.63262        69.91421         0.94722
C         56.33306        69.18812         0.67419
C         57.57748        71.40484         0.66984
C         56.34847        72.08241         0.49026
C         57.58386        74.18916         0.26319
C         56.34108        73.48981         0.22021
C         58.74525        54.86510        -0.50878
C         59.99360        57.10417        -0.73484
C         58.80841        56.32979        -0.18926
C         60.03929        58.47500        -0.65867
C         58.77757        59.17692        -0.18238
C         60.08778        61.33762        -0.09149
C         58.79883        60.65682        -0.58435
C         60.01313        62.83992        -0.42316
C         58.85333        63.49410         0.34412
C         60.00283        65.69448        -0.38248
C         58.75955        64.96589         0.04214
C         60.03661        67.13988         0.06689
C         58.83384        67.80721         0.21753
C         60.08391        69.98719         0.42803
C         58.77378        69.30292         0.12978
C         60.07597        71.37735         0.61355
C         58.80058        72.10164         0.59832
C         60.05965        74.32857         0.54376
C         58.78469        73.52141         0.45761
C         61.22384        59.26922        -0.91737
C         62.50286        61.41164        -0.70905
C         61.30639        60.64356        -0.66884
C         62.55775        62.80156        -0.42193
C         61.31920        63.56727        -0.25040
C         62.55396        65.73136        -0.43128
C         61.29731        64.92732        -0.21560
C         62.52548        67.01519         0.42038
C         61.27685        67.83143         0.18051
C         62.54235        69.93295         0.53229
C         61.29715        69.24012         0.38838
C         62.53198        71.33357         0.71030
C         61.31754        72.07731         0.72275
C         62.52363        74.21816         0.60179
C         61.34380        73.52587         0.65962
C         63.77445        63.51533        -0.33741
C         64.99619        65.63623        -0.01062
C         63.81705        64.92847        -0.20156
C         65.02399        67.07545         0.11855
C         63.80051        67.80531         0.27846
C         65.03932        69.91309         0.39355
C         63.79555        69.19851         0.42507
C         65.06667        71.32111         0.56239
C         63.81857        72.02227         0.90005
C         65.07218        74.20907         0.43837
C         63.82202        73.57600         0.82461
C         66.23609        67.77821         0.09765
C         67.48226        69.91502         0.16561
C         66.26888        69.19391         0.21812
C         67.50065        71.32364         0.23335
C         66.27203        72.04068         0.44233
C         67.51271        74.15914         0.16881
C         66.27260        73.48901         0.38970
C         68.71206        72.05263         0.07236
C         68.70319        73.44723         0.04232
O         53.03431        68.57455        -0.74658
O         47.73817        50.37594        -2.20476
O         27.69567        66.53166         1.88662
O         51.95353        45.86402        -2.39809
O         50.01197        49.17388        -2.62560
O         53.26483        54.97069        -2.43390
O         43.73583        48.25631         2.22731
O         47.24313        60.65366         1.91453
O         63.89949        72.83541         2.10020
O         44.87247        71.99684         1.70261
O         33.94028        73.33275         0.75912
O         45.84471        69.41417        -0.89450
O         33.36620        61.04149        -1.50759
O         50.56153        67.34849         2.30357
O         48.74274        41.90150         1.38711
O         54.93712        66.23295        -1.01520
O         42.73970        70.77408         2.13113
O         55.04190        57.72393         1.09399
O         40.84819        48.31761         2.45613
O         32.90552        58.08377         1.92014
O         45.18503        62.53491         2.93771
H         44.33862        62.10873         3.19603
O         52.78819        71.03845        -1.79934
H         53.15797        70.14526        -1.98541
O         35.41141        63.02403        -1.74593
H         34.73160        62.40796        -2.11451
O         37.04014        55.03700         2.08496
H         36.33469        55.47569         2.60608
O         59.85795        65.81729        -1.86516
H         59.66576        64.89944        -2.18737
O         46.38008        56.46256        -2.10385
H         45.58099        55.99670        -2.43039
O         36.62210        50.85346         2.86356
H         36.75689        49.93387         3.21564
O         24.16275        64.96379        -0.00366
H         24.31870        64.88710        -0.96686
O         37.47640        49.87586        -0.56203
H         38.30607        49.55592        -0.99852
O         41.75702        54.74569        -1.65981
H         41.13115        55.32832        -2.14073
O         57.51489        58.44382        -2.19385
H         57.89464        59.29833        -2.52184
O         40.06907        49.72721        -0.89505
H         40.14531        50.61883        -1.33240
O         39.28361        50.81047         2.53842
H         38.46949        51.20934         2.93898
O         53.82135        60.83226        -2.10600
H         53.04841        60.33090        -2.44513
O         42.49292        54.58728         1.92607
H         43.25303        54.21557         2.42054
O         59.00335        56.38659         1.31684
H         58.27346        55.86342         1.71606
O         25.72582        74.84545        -3.15129
H         25.91420        74.28022        -3.92801
O         47.50784        57.02007         1.34915
H         48.19965        57.59654         1.73770
O         37.60900        56.96872        -1.82803
H         38.46871        57.24098        -2.21486
O         49.88780        63.15772        -1.51286
H         50.64665        62.73059        -1.96729
O         43.82540        37.75133         2.16403
H         44.16561        36.86234         2.42731
O         45.16869        67.36299         2.80666
H         45.71706        66.63162         3.19638
O         36.44782        59.39254        -1.81593
H         36.61395        58.47992        -2.16433
O         39.34016        63.36957        -0.62495
H         38.60709        63.74503        -1.15886
O         58.69838        59.08736         1.26107
H         58.83238        58.12894         1.50614
O         45.17005        35.31262         1.88496
H         45.16708        34.33520         1.97733
O         47.54701        70.57675         2.04143
H         47.55378        69.84641         2.69474
O         37.84655        48.54937         2.87584
H         38.76073        48.84232         3.11035
O         37.16667        62.80243         2.34510
H         37.91576        62.48219         2.90572
O         41.74451        63.65098         3.09341
H         41.50105        64.56020         3.37163
O         50.00024        65.91090        -1.08805
H         49.91948        65.01589        -1.50911
O         58.44211        69.59719        -1.26990
H         59.06677        69.09784        -1.83763
O         46.48989        46.37904         1.89475
H         47.27080        46.88679         2.20150
O         60.22812        61.20908         1.34323
H         59.83517        60.33482         1.60903
O         57.96969        69.73809         2.35778
H         57.27010        70.16921         2.89271
O         53.15274        67.11660         2.56468
H         52.37020        66.92422         3.12975
O         46.50060        64.94328         3.00861
H         46.02852        64.12811         3.32507
O         59.70988        63.03127        -1.85227
H         60.50622        62.74467        -2.35166
O         62.45872        66.56558         1.80933
H         62.38567        67.35637         2.38399
O         40.16844        52.42805        -1.49320
H         40.87685        52.99375        -1.89511
O         47.81604        70.70946        -1.60844
H         47.93980        71.47389        -2.20876
O         45.11747        45.93890        -1.46600
H         44.35610        45.42476        -1.80642
O         30.33823        65.71571         2.42083
H         29.46797        66.09513         2.69354
O         60.14545        75.23682        -0.56790
H         60.12688        74.71026        -1.39311
O         59.11585        63.50044         1.76851
H         59.50181        62.61972         2.00878
O         42.67042        41.45306        -1.66313
H         42.58210        42.39428        -1.92505
O         37.32142        54.07212        -1.43197
H         37.96155        53.46162        -1.85759
O         38.83137        67.91335         2.78887
H         38.02361        68.42108         3.01848
O         62.57318        66.12221        -1.83233
H         61.63140        66.21253        -2.12774
O         43.35122        69.05860        -1.04790
H         44.15027        68.81272        -1.57242
O         46.31364        42.21641         2.17994
H         47.22359        42.38053         2.51874
O         54.20357        64.67523         2.29690
H         53.44129        64.23846         2.73084
O         48.30899        47.17165        -2.43220
H         48.44810        47.90989        -3.07014
O         57.67129        67.01131         2.08638
H         57.83580        67.93200         2.41817
O         58.84257        60.65920        -2.04089
H         58.72301        61.59468        -2.33489
O         49.38447        46.97342         1.04351
H         49.57734        46.21662         1.63728
O         39.64696        62.43691         2.88108
H         40.41073        62.63309         3.48294
O         47.52592        58.81435        -1.89545
H         47.00862        58.07462        -2.30111
O         48.40425        43.20448        -2.03213
H         48.36856        44.06251        -2.50793
O         52.55505        52.60433        -3.02852
H         53.05781        53.36631        -3.40328
H         23.16996        74.70900        -3.12768
H         25.27662        74.67827        -1.15647
H         28.00026        74.96439        -2.03724
H         30.44768        74.98389        -1.78315
H         32.78694        74.89129        -1.98357
H         35.59232        74.90471        -1.70472
H         37.81871        75.11068        -0.92999
H         40.24359        75.16511        -0.67614
H         42.66778        75.19297        -0.60609
H         45.19952        75.20270        -0.64811
H         47.70933        75.17810        -0.68661
H         50.21687        75.16698        -0.61504
H         52.67028        75.14375        -0.61020
H         55.10462        75.21727        -0.23972
H         57.59258        75.27940         0.11691
H         59.98552        74.97657         1.46093
H         62.50178        75.29684         0.38378
H         65.06661        75.27465         0.16368
H         67.52114        75.25739         0.11903
H         22.14743        69.06543        -1.54479
H         21.02250        70.99105        -2.59120
H         21.08330        73.35420        -3.37708
H         25.03608        65.75359         1.67862
H         23.27152        67.12266        -0.52104
H         26.88639        60.86858         0.13955
H         25.63985        63.00512         0.03433
H         29.39596        56.60300         0.60131
H         28.14707        58.72164         0.38636
H         31.87877        52.31324         0.90961
H         30.63974        54.43120         0.69656
H         34.33664        48.03260         0.82701
H         33.09726        50.16988         0.88435
H         36.85728        43.72454         0.72631
H         35.60295        45.85308         0.73970
H         39.29675        39.45826         0.18296
H         38.08308        41.60524         0.51832
H         41.76042        35.22026        -0.37142
H         40.53611        37.30641        -0.16881
H         45.08079        31.84699        -0.81687
H         42.95403        33.11911        -0.69475
H         47.26505        33.01116        -0.64881
H         48.51371        35.14577        -0.51930
H         49.73719        37.24308        -0.42205
H         50.94110        39.31081        -0.67729
H         52.21349        41.45445        -1.00116
H         53.50059        43.55414        -0.66787
H         54.74543        45.91010        -0.52510
H         55.90337        47.99458        -0.62497
H         57.13452        50.07912        -0.59311
H         58.40832        52.16470        -0.59990
H         59.68874        54.29758        -0.51182
H         60.88095        56.53662        -1.05682
H         62.12780        58.73641        -1.25533
H         63.44774        60.89968        -0.95245
H         64.72340        62.95613        -0.34912
H         65.95456        65.09572         0.03845
H         67.18136        67.23053        -0.03172
H         68.42767        69.36960         0.02686
H         69.65511        71.50310        -0.05905
H         69.64689        73.99210        -0.10207
