         404
 CSIRO Nanostructure Databank - Neutral Graphene Oxide Data Set
C          1.25608         3.41836         1.07916
C          0.12021         4.12732         1.35372
C          1.16343         6.26669         0.75676
C          0.09252         5.55821         1.24091
C          1.17652         7.72217         0.68415
C         -0.01225         8.46564         0.82501
C          1.20034        10.56882         0.60050
C         -0.00256         9.85105         0.76287
C          1.21329        12.01911         0.53800
C          0.02016        12.76150         0.54643
C          1.23027        14.87432         0.45442
C          0.03125        14.15517         0.51522
C          1.24304        16.33514         0.51521
C          0.05396        17.06603         0.78319
C          1.23798        19.18518         0.61203
C          0.04837        18.44548         0.81919
C          1.26330        20.63067         0.63111
C          0.11546        21.38712         0.97875
C          1.29699        23.48433         0.59619
C          0.13863        22.76654         0.99347
C          1.30991        24.94098         0.52326
C          0.14785        25.68983         0.78147
C          1.30627        27.79226         0.34415
C          0.14451        27.07594         0.69148
C          1.28402        29.22761         0.16426
C          0.13464        29.99103         0.60385
C          1.04007        32.08079        -0.30772
C          0.04824        31.33907         0.47728
C          1.11273        33.56427        -0.12939
C         -0.11934        34.31750        -0.14341
C          1.06585        36.45712         0.09622
C         -0.13934        35.68051        -0.19120
C          1.19008        37.86992        -0.30180
C          3.63555         3.41322         0.49777
C          2.44981         4.08552         0.62526
C          3.63716         6.27586         0.25390
C          2.33387         5.52192         0.15366
C          3.64105         7.68705         0.34876
C          2.40241         8.42003         0.49590
C          3.67312        10.55702         0.41549
C          2.42445         9.84572         0.49688
C          3.68843        11.99310         0.41064
C          2.45736        12.71552         0.44932
C          3.69701        14.83774         0.24738
C          2.46682        14.14825         0.38130
C          3.68455        16.30221        -0.11656
C          2.44390        17.04125         0.33724
C          3.67718        19.19200         0.27980
C          2.44626        18.46446         0.38778
C          3.69721        20.58857         0.15632
C          2.45989        21.32787         0.29693
C          3.61364        23.47030        -0.29499
C          2.44346        22.74878         0.23325
C          3.69437        24.92852        -0.15094
C          2.50889        25.64213         0.18162
C          3.71045        27.76545        -0.25287
C          2.51367        27.07221         0.09594
C          3.67923        29.18768        -0.47618
C          2.41461        29.88196        -0.33678
C          3.53796        32.07745        -0.98567
C          2.28561        31.29913        -0.72565
C          3.56025        33.53504        -0.59610
C          2.33219        34.21091        -0.09530
C          3.64173        36.39614        -0.04236
C          2.39557        35.65126         0.19523
C          3.65490        37.77559        -0.25161
C          2.39409        38.48554        -0.40801
C          6.00495         3.40901        -0.16573
C          4.86038         4.09248         0.13013
C          6.06965         6.26301         0.11806
C          4.84795         5.56561         0.14813
C          6.09061         7.67033         0.17513
C          4.87353         8.40113         0.29625
C          6.14738        10.53654         0.34399
C          4.89309         9.83763         0.34925
C          6.16742        11.98700         0.38269
C          4.92688        12.70137         0.36420
C          6.17215        14.85384         0.21876
C          4.92509        14.13634         0.27448
C          6.17094        16.31466         0.25129
C          4.97024        16.99712         0.24709
C          6.24365        19.21947         0.37835
C          4.92984        18.44527         0.46055
C          6.17965        20.63912         0.00551
C          4.94820        21.28278        -0.06238
C          6.17614        23.45758        -0.50672
C          4.92337        22.69597        -0.47087
C          6.13976        24.87691        -0.58076
C          4.90853        25.60459        -0.39516
C          6.15760        27.73667        -0.61606
C          4.93269        27.04173        -0.42474
C          6.14380        29.17933        -0.75720
C          4.87088        29.86314        -0.81380
C          6.13325        32.08871        -1.07478
C          4.83674        31.31596        -1.11893
C          6.13812        33.50702        -0.62285
C          4.87781        34.13911        -0.24096
C          6.16391        36.35924        -0.13881
C          4.89951        35.66335         0.05817
C          6.13611        37.79047        -0.31024
C          4.90312        38.46069        -0.37082
C          8.53049         3.38162        -0.49956
C          7.23927         4.15636        -0.60406
C          8.57356         6.25032        -0.25091
C          7.35227         5.46868         0.17170
C          8.54605         7.65540        -0.18352
C          7.34553         8.38000         0.08556
C          8.63773        10.48628         0.34117
C          7.34493         9.79372         0.21957
C          8.67393        12.00583         0.48677
C          7.38419        12.72309         0.37689
C          8.66728        14.88416         0.30252
C          7.37932        14.13857         0.27848
C          8.65373        16.34206         0.03198
C          7.43579        17.04769         0.18406
C          8.65380        19.16575        -0.20503
C          7.46151        18.45892         0.08687
C          8.64149        20.61058        -0.32301
C          7.41167        21.32312        -0.28238
C          8.63494        23.41788        -0.72950
C          7.40491        22.73809        -0.48627
C          8.57416        24.84612        -1.07500
C          7.35019        25.60170        -0.77492
C          8.66685        27.70815        -0.76969
C          7.38762        27.01093        -0.75604
C          8.62380        29.15339        -0.33408
C          7.36954        29.85901        -0.81858
C          8.68360        32.04011        -0.67859
C          7.41744        31.31208        -0.99641
C          8.58918        33.45110        -0.21599
C          7.31806        34.19219        -0.34429
C          8.62358        36.33407        -0.26598
C          7.35422        35.62417        -0.16162
C          8.60061        37.79217        -0.39263
C          7.38148        38.47610        -0.42077
C         10.99433         3.35490        -0.52473
C          9.74012         4.05676        -0.50151
C         11.01219         6.17482        -0.68183
C          9.75967         5.51696        -0.49701
C         11.04324         7.64894        -0.78747
C          9.77151         8.40758        -0.51164
C         11.04864        10.51264        -0.20335
C          9.86197         9.82491        -0.10868
C         11.07351        11.95521        -0.19764
C          9.92841        12.66341         0.07203
C         11.16988        14.82168        -0.36348
C          9.95721        14.13390         0.13472
C         11.06735        16.27129        -0.62675
C          9.84721        17.02491        -0.26296
C         11.10831        19.16677        -0.50804
C          9.86311        18.44257        -0.38140
C         11.10163        20.59348        -0.47952
C          9.86723        21.31653        -0.48845
C         11.11756        23.47453        -0.81309
C          9.86317        22.74098        -0.67365
C         11.13622        24.83811        -1.02800
C          9.89019        25.60555        -1.21843
C         11.16675        27.74130        -0.76240
C          9.87750        27.05324        -0.90664
C         11.16984        29.19092        -0.57666
C          9.93679        29.89988        -0.51312
C         11.15480        32.04857        -0.36504
C          9.93966        31.29616        -0.42250
C         11.15127        33.47297        -0.30022
C          9.88347        34.20904        -0.09842
C         11.09182        36.35056        -0.73683
C          9.82931        35.66408        -0.28361
C         11.07457        37.83807        -0.46537
C          9.83556        38.49729        -0.43267
C         13.47117         3.30945        -0.51622
C         12.21405         4.02290        -0.61074
C         13.47951         6.18905        -0.89452
C         12.20514         5.45914        -0.74809
C         13.50507         7.64714        -0.61342
C         12.33274         8.34198        -0.57003
C         13.58799        10.51568        -0.43392
C         12.34289         9.75932        -0.06082
C         13.59310        11.90642        -0.55861
C         12.28239        12.62880        -0.82777
C         13.57280        14.84223        -1.00544
C         12.31674        14.13471        -0.62889
C         13.64905        16.31490        -0.82622
C         12.36758        17.03928        -0.84916
C         13.56899        19.15031        -0.36225
C         12.34096        18.47711        -0.57672
C         13.53731        20.57669        -0.27594
C         12.34566        21.29607        -0.43886
C         13.55888        23.44008        -0.54264
C         12.37157        22.74518        -0.59253
C         13.66476        24.83403        -1.01022
C         12.39269        25.60224        -1.39423
C         13.64426        27.79459        -0.97850
C         12.36085        27.05308        -0.90021
C         13.66502        29.24571        -0.67923
C         12.39954        29.91679        -0.55088
C         13.61562        32.06736        -0.31420
C         12.39288        31.33949        -0.41569
C         13.57989        33.47376        -0.15991
C         12.35818        34.19802        -0.22534
C         13.50603        36.38840        -0.14239
C         12.35034        35.65367        -0.27141
C         13.53193        37.84027        -0.29342
C         12.28856        38.52943        -0.39020
C         15.95425         3.25726        -0.36344
C         14.69249         3.94759        -0.47390
C         15.92912         6.16138        -0.17426
C         14.74704         5.41550        -0.68916
C         15.98243         7.63165        -0.33561
C         14.78195         8.33809        -0.44606
C         16.04607        10.46055        -0.39633
C         14.80241         9.77414        -0.43399
C         16.03768        11.88269        -0.44938
C         14.83804        12.59302        -0.61544
C         16.15048        14.81295        -0.82238
C         14.86108        14.04564        -0.95717
C         16.15260        16.31752        -0.71553
C         14.83873        17.02328        -0.64479
C         15.98193        19.07737         0.26542
C         14.80687        18.42470        -0.34844
C         15.93225        20.58080         0.53789
C         14.81926        21.29079        -0.14583
C         15.97177        23.55578         0.32738
C         14.85188        22.77478        -0.27130
C         16.05021        24.89799         0.05478
C         14.97802        25.53301        -0.77885
C         16.24133        27.75239        -0.64477
C         14.96318        27.02867        -0.94016
C         16.19084        29.26675        -0.61623
C         14.87338        29.95164        -0.57768
C         16.09765        32.07906        -0.18445
C         14.87345        31.36442        -0.32690
C         16.10544        33.50028        -0.03180
C         14.81803        34.18960         0.14640
C         16.01984        36.44747        -0.04417
C         14.77423        35.71909         0.19309
C         16.00975        37.85649        -0.12843
C         14.74514        38.52998        -0.22871
C         18.43245         3.24133        -0.30356
C         17.16193         3.92020        -0.26262
C         18.46769         6.12353        -0.13407
C         17.19942         5.38288        -0.01547
C         18.47686         7.54405        -0.18888
C         17.24081         8.30584        -0.24556
C         18.54101        10.41454        -0.30205
C         17.27449         9.71896        -0.30073
C         18.57687        11.83654        -0.31841
C         17.31346        12.59428        -0.21255
C         18.65593        14.77913        -0.46682
C         17.35339        14.09092        -0.28742
C         18.68437        16.19687        -0.52022
C         17.41861        16.95841        -0.17308
C         18.48898        19.32154         0.45444
C         17.33146        18.40148         0.26022
C         18.29016        20.57816         1.14257
C         17.12738        21.35255         0.91841
C         18.13334        23.68953         1.62334
C         16.90103        22.83581         1.30502
C         18.23773        25.06064         1.22748
C         17.19354        25.71100         0.46958
C         18.47154        27.83650         0.48369
C         17.31197        27.06564         0.11927
C         18.56659        29.25171         0.22473
C         17.38797        29.99409        -0.14529
C         18.61036        32.15423        -0.10893
C         17.35519        31.38471        -0.14446
C         18.57434        33.61063         0.10356
C         17.29541        34.24221         0.03432
C         18.58583        36.51419         0.12137
C         17.25447        35.70341        -0.13367
C         18.41737        37.93916         0.42843
C         17.21658        38.58252         0.10937
C         19.60997         3.93174        -0.26283
C         20.89255         6.07280        -0.29521
C         19.66102         5.37945        -0.22366
C         20.91945         7.45583        -0.29865
C         19.72699         8.22290        -0.26256
C         20.97268        10.39271        -0.37160
C         19.75553         9.67341        -0.31377
C         20.99169        11.77200        -0.45409
C         19.79506        12.53149        -0.44336
C         21.04745        14.64650        -0.87169
C         19.83141        13.99473        -0.58002
C         21.08878        16.02407        -1.00107
C         19.93321        16.79035        -0.77786
C         20.91837        19.63192         0.74797
C         19.82002        18.99814         0.14498
C         20.68240        20.55863         1.77884
C         19.38773        21.02811         1.93806
C         20.19836        23.98460         2.95704
C         19.11042        23.21750         2.50596
C         20.34759        25.26957         2.48425
C         19.38440        25.82214         1.60793
C         20.72183        27.91124         1.44964
C         19.53419        27.19159         1.17060
C         20.83781        29.24911         1.12850
C         19.76339        29.94607         0.54279
C         20.98769        32.20343         0.79364
C         19.90022        31.38698         0.23486
C         20.92735        33.56208         0.80821
C         19.74464        34.31473         0.45636
C         20.68204        36.46659         1.36534
C         19.71715        35.75317         0.65761
C         20.58537        37.86927         1.53913
C         19.49504        38.59282         1.09259
O         15.29189        21.90720        -1.40022
O          8.79224        11.14102         1.65603
O          3.41885        33.11858        -1.99246
O         19.06784        21.90375         2.99431
O          9.12953        25.19277        -2.39361
O         14.39464        27.43935        -2.20793
O         14.19351        14.30825        -2.23899
O         14.33410         5.80715        -2.03815
O          9.52137        14.59624         1.47662
O         17.18933        13.45232         1.01202
O          1.67372        36.10576         1.37712
O         14.71331        24.87908        -2.05294
O          1.21119        31.58144        -1.67322
O         16.36509         5.74993         1.16034
O          4.89723        34.64906         1.12249
O          8.31096        31.82293        -2.08313
O          5.64812        18.88954         1.67459
O         10.24683         8.19072        -1.89966
O         16.43389        15.64119        -1.98430
O          9.18083        33.68399         1.10065
O         16.61943        28.52368        -1.82283
O          5.50254        31.74619        -2.35352
O         17.33785        17.27876         1.24869
O         11.51291        16.62554        -1.98097
O         14.75288        34.92917         1.43233
O         18.14890        36.14311        -1.20532
O         15.55841        19.62119         1.58164
O         20.11142        18.15639        -0.93754
O          4.03903        22.97682        -1.61131
O         19.56049        31.72932        -1.14123
O         16.12902        22.76088         2.55018
H         16.65056        22.21668         3.18078
O          7.55848         5.10608         1.57119
H          7.59711         5.93338         2.09524
O         12.35531        25.69867        -2.83635
H         13.25514        25.99181        -3.12011
O         12.44518         9.60700         1.41220
H         13.34445         9.27072         1.61693
O         11.10801        36.21007        -2.20539
H         10.35904        36.73568        -2.55934
O          2.03560         5.43983        -1.28695
H          1.19434         4.94421        -1.37852
O          7.06973         4.50565        -2.01147
H          6.95671         3.67635        -2.52033
O         12.07288        12.47833        -2.27057
H         12.77849        13.01052        -2.71341
O          3.63780        16.34192        -1.59750
H          2.82433        15.86876        -1.87525
O          8.44350        29.10489         1.13929
H          9.24971        28.69653         1.52131
H          1.29520         2.33399         1.26099
H         -0.77432         3.61332         1.73202
H         -0.80227         6.07975         1.60976
H         -0.97232         7.94870         0.95739
H         -0.95835        10.38268         0.85611
H         -0.95172        12.25350         0.58765
H         -0.93233        14.68044         0.54020
H         -0.89142        16.53509         0.95420
H         -0.90193        18.96386         1.00302
H         -0.81220        20.87516         1.26667
H         -0.76937        23.30310         1.29735
H         -0.79196        25.18472         1.03866
H         -0.80067        27.60415         0.87008
H         -0.64815        29.47266         1.17359
H         -0.75955        31.89249         0.97764
H         -1.05259        33.76021        -0.30968
H         -1.06751        36.21385        -0.44425
H          0.26768        38.41960        -0.54362
H          3.67893         2.33261         0.70698
H          2.43963        39.54822        -0.68897
H          6.00146         2.30732        -0.18152
H          4.89443        39.55090        -0.51638
H          8.51594         2.28279        -0.57861
H          7.38006        39.57119        -0.52626
H         10.98157         2.25633        -0.46135
H          9.81580        39.59664        -0.37673
H         13.43096         2.21522        -0.40299
H         12.28468        39.62941        -0.34714
H         15.94961         2.15780        -0.42289
H         14.73767        39.62905        -0.27819
H         18.43835         2.14432        -0.38421
H         17.14539        39.67241         0.24523
H         20.56457         3.38692        -0.30407
H         21.83138         5.50335        -0.34798
H         21.89392         7.95895        -0.34914
H         21.93181         9.85891        -0.36330
H         21.96671        12.27241        -0.50902
H         21.97336        14.07623        -1.01421
H         22.02855        16.53709        -1.24147
H         21.93773        19.33208         0.47590
H         21.50095        20.94337         2.39983
H         20.91612        23.54446         3.66024
H         21.20444        25.86205         2.82524
H         21.58443        27.41201         1.90685
H         21.78253        29.76639         1.34045
H         21.88089        31.70823         1.19977
H         21.80051        34.11478         1.18198
H         21.54835        35.95137         1.80219
H         21.39086        38.38585         2.07945
H         19.43075        39.67345         1.28428
