         404
 CSIRO Nanostructure Databank - Neutral Graphene Oxide Data Set
C          1.50000         3.43712         1.03810
C          0.33579         4.10701         1.38538
C          1.41075         6.27617         1.02030
C          0.28987         5.50810         1.38503
C          1.38760         7.72496         1.02132
C          0.21029         8.44013         1.35120
C          1.34872        10.57931         1.08474
C          0.18915         9.82010         1.37478
C          1.33459        12.02846         1.13956
C          0.15573        12.73533         1.46292
C          1.32793        14.86289         1.36165
C          0.15486        14.11726         1.57103
C          1.32270        16.33151         1.57883
C          0.08337        17.12678         1.65902
C          1.27420        19.27795         1.38306
C          0.10635        18.49107         1.69602
C          1.32471        20.68809         1.46335
C          0.23583        21.40432         2.06505
C          1.56365        23.42299         2.11100
C          0.37147        22.71278         2.44098
C          1.62146        25.77835         1.76082
C          0.54100        26.64150         2.03987
C          1.34689        28.21416         0.37485
C          0.37465        27.80282         1.32226
C          1.21889        29.50521        -0.20750
C          0.10630        30.35168         0.00167
C          1.24126        32.30101        -0.97213
C          0.08573        31.66640        -0.44311
C          1.27555        33.74479        -1.20395
C          0.11650        34.55477        -1.02283
C          1.37972        36.57039        -1.53371
C          0.16104        35.91949        -1.21387
C          1.45466        37.99251        -1.63442
C          3.86817         3.48141         0.39660
C          2.65787         4.15927         0.65520
C          3.74981         6.34580         0.23540
C          2.61355         5.60539         0.62238
C          3.75979         7.76202         0.30505
C          2.56310         8.45876         0.69948
C          3.73843        10.63313         0.45833
C          2.54553         9.88953         0.74735
C          3.73108        12.05651         0.52528
C          2.52644        12.76468         0.87720
C          3.73212        14.93489         0.67541
C          2.52061        14.19300         0.98009
C          3.74440        16.34805         0.67624
C          2.56913        17.09122         1.17833
C          3.70245        19.30254         0.52658
C          2.41834        18.53613         0.84292
C          3.71368        20.73386         0.82065
C          2.54363        21.42895         1.14571
C          3.78149        23.71598         0.99519
C          2.59538        22.86696         1.38770
C          3.65020        25.12021         0.42280
C          2.58430        26.04532         0.76561
C          3.52977        27.81352        -0.72097
C          2.49722        27.35701         0.10787
C          3.49230        29.16254        -1.35696
C          2.29186        30.03790        -1.06182
C          3.64011        32.10526        -1.50387
C          2.39687        31.51206        -1.18468
C          3.65684        33.52577        -1.88360
C          2.47042        34.36156        -1.61689
C          3.79992        36.44668        -1.96156
C          2.55730        35.78505        -1.72975
C          3.87595        37.86243        -1.90152
C          2.66281        38.61955        -1.80269
C          6.25156         3.52723        -0.14707
C          5.02956         4.17339         0.00448
C          6.21540         6.37591        -0.32803
C          4.90990         5.62324        -0.40250
C          6.18123         7.79610        -0.27648
C          4.95139         8.50077         0.00875
C          6.11580        10.67714        -0.17062
C          4.93801         9.93086         0.10633
C          6.13520        12.08724        -0.05179
C          4.93171        12.78899         0.27597
C          6.14295        14.94123         0.15382
C          4.92922        14.21904         0.35192
C          6.14664        16.36775         0.17769
C          4.92898        17.08290         0.38750
C          6.15985        19.19946         0.24989
C          4.95936        18.52042         0.42462
C          6.23684        20.66537         0.45376
C          5.01750        21.42885         0.86335
C          6.01993        23.44950        -0.27651
C          5.03248        22.92760         0.70373
C          5.64877        24.62405        -0.92141
C          4.63300        25.54269        -0.48255
C          6.01096        27.63925        -1.48273
C          4.65871        26.92663        -1.04607
C          6.08096        29.13453        -1.61582
C          4.78136        29.89606        -1.67632
C          6.12140        32.02708        -1.53461
C          4.84451        31.37143        -1.54717
C          6.21191        33.43756        -1.67339
C          5.00797        34.18426        -2.08854
C          6.35668        36.37443        -1.90699
C          5.03949        35.67995        -2.16178
C          6.33449        37.82592        -1.62374
C          5.13023        38.52693        -1.78409
C          8.66632         3.57905        -0.54014
C          7.45340         4.24337        -0.44379
C          8.66652         6.39709        -0.69113
C          7.42825         5.69378        -0.51637
C          8.63052         7.83345        -0.66620
C          7.39255         8.50258        -0.49386
C          8.64441        10.73913        -0.64817
C          7.31883         9.96333        -0.61778
C          8.61725        12.15043        -0.27042
C          7.37952        12.81817        -0.14147
C          8.60675        14.95128        -0.07934
C          7.37471        14.23868        -0.01256
C          8.60623        16.37314        -0.12999
C          7.37058        17.07679         0.00032
C          8.58021        19.21414        -0.25611
C          7.37642        18.49504         0.01068
C          8.51182        20.62411        -0.46470
C          7.37278        21.36934        -0.18561
C          8.44568        23.42630        -1.00661
C          7.25156        22.75180        -0.56324
C          8.54100        24.85312        -1.17536
C          7.41766        25.60668        -1.52482
C          8.47539        27.67651        -0.88149
C          7.31707        26.98598        -1.29577
C          8.45405        29.12446        -0.77504
C          7.30137        29.85351        -1.18556
C          8.50403        31.96174        -0.80247
C          7.32055        31.27214        -1.19387
C          8.55753        33.39766        -0.87545
C          7.41979        34.13445        -1.37115
C          8.66191        36.24119        -1.05050
C          7.50018        35.56250        -1.43898
C          8.72020        37.69185        -1.04457
C          7.54122        38.44970        -1.27353
C         11.05228         3.41172        -0.71915
C          9.90986         4.23964        -0.79552
C         11.10134         6.47889        -0.99203
C          9.89583         5.69576        -0.90953
C         11.11112         7.87998        -0.70801
C          9.86979         8.57838        -0.66235
C         11.11038        10.69063        -0.34276
C          9.89280         9.98367        -0.53962
C         11.07516        12.09358        -0.11894
C          9.85668        12.82376        -0.09672
C         11.06158        14.99659        -0.10560
C          9.85374        14.26168        -0.05204
C         11.07223        16.39288        -0.32325
C          9.82483        17.08335        -0.30683
C         11.03801        19.17739        -0.67478
C          9.81633        18.50499        -0.42297
C         10.99782        20.67863        -0.66513
C          9.68013        21.24201        -1.17985
C         10.90094        23.42919        -1.22290
C          9.67720        22.74343        -1.08730
C         11.00407        24.84894        -0.93266
C          9.76250        25.55048        -0.94013
C         10.88285        27.59646        -0.23624
C          9.71157        26.95920        -0.73310
C         10.72146        28.98939         0.22989
C          9.60516        29.79498        -0.32750
C         10.78623        31.89746         0.18317
C          9.65609        31.22548        -0.32262
C         10.78210        33.39831         0.34097
C          9.72628        34.08347        -0.49162
C         11.05279        36.16036        -0.45088
C          9.82152        35.49526        -0.64618
C         11.12400        37.58637        -0.51398
C          9.93324        38.32780        -0.75293
C         13.60879         3.40910        -0.71403
C         12.35098         3.79840        -1.14027
C         13.59619         6.46853        -0.93826
C         12.35573         5.92233        -1.33382
C         13.59538         7.86147        -0.60896
C         12.35556         8.57481        -0.57891
C         13.60202        10.68454        -0.23081
C         12.36547         9.98759        -0.36070
C         13.60835        12.10099        -0.06970
C         12.33412        12.78184         0.16039
C         13.58949        15.01492        -0.18908
C         12.33649        14.32926         0.13382
C         13.55851        16.40728        -0.50333
C         12.31542        17.09262        -0.52289
C         13.47502        19.20714        -1.21901
C         12.27437        18.50527        -0.78432
C         13.25428        20.49936        -1.75596
C         12.11037        21.27723        -1.48203
C         13.80968        23.71816        -1.17662
C         12.01092        22.65250        -1.69040
C         13.46530        24.81769        -0.40676
C         12.19671        25.52528        -0.52271
C         13.23794        27.58623         0.54813
C         12.09483        26.89257        -0.05902
C         13.16959        28.90223         0.96128
C         11.89701        29.67298         0.86884
C         13.19082        31.90741         1.08546
C         11.88871        31.17820         0.85425
C         13.31171        33.30007         0.55641
C         12.16894        33.98071         0.15900
C         13.50740        36.10207         0.09266
C         12.32220        35.35010        -0.45007
C         13.53752        37.52774         0.03412
C         12.35650        38.24744        -0.31482
C         16.02457         3.54421        -0.91711
C         14.79179         4.22620        -0.90169
C         16.02755         6.35165        -0.58126
C         14.79793         5.67529        -0.87714
C         16.05319         7.79745        -0.37613
C         14.83335         8.53959        -0.41023
C         16.07707        10.64404        -0.07311
C         14.85058         9.96045        -0.24396
C         16.06753        12.10875         0.16340
C         14.79983        12.85676        -0.03389
C         16.04931        15.05243        -0.17954
C         14.79095        14.27655        -0.10089
C         15.98818        16.40767        -0.78087
C         14.80024        17.11163        -0.81244
C         16.01491        19.23725        -1.11599
C         14.78195        18.55788        -1.13271
C         16.27392        20.71865        -1.40228
C         15.10159        21.62244        -1.55198
C         15.90097        23.22587         0.11436
C         14.90769        22.81525        -0.90549
C         15.75651        24.56597         0.76464
C         14.46365        25.31780         0.57682
C         15.71209        27.40545         1.33327
C         14.42952        26.76958         0.93533
C         15.63917        28.79532         1.73963
C         14.35709        29.57885         1.54709
C         15.76645        31.70457         1.18039
C         14.42094        31.09764         1.46257
C         15.81699        33.15501         0.74417
C         14.58145        33.94810         0.61595
C         15.84151        36.08432         0.83989
C         14.65610        35.38177         0.50491
C         15.90341        37.51552         0.75048
C         14.72711        38.21429         0.35164
C         18.50934         3.52835        -0.95368
C         17.24912         4.22220        -0.83109
C         18.49594         6.24081        -0.14546
C         17.23129         5.61322        -0.54422
C         18.51761         7.76367         0.04856
C         17.26346         8.50041        -0.16821
C         18.58143        10.59644         0.02385
C         17.30273         9.92496        -0.06659
C         18.69599        12.09505         0.30486
C         17.36793        12.85763         0.26521
C         18.57666        14.99410        -0.60878
C         17.36915        14.34486        -0.02441
C         18.53975        16.30026        -0.99819
C         17.24992        17.03952        -1.31922
C         18.48026        19.18093        -0.82356
C         17.27061        18.51933        -1.01914
C         18.51477        20.56351        -0.39107
C         17.32184        21.30238        -0.49716
C         18.33690        23.19781         0.67350
C         17.22217        22.57788         0.05484
C         18.23022        24.57503         1.12724
C         16.99987        25.28410         1.12434
C         18.19015        27.39823         1.63833
C         16.93625        26.69188         1.40444
C         18.23523        28.81067         1.71125
C         16.99364        29.57414         1.87686
C         18.25002        31.65417         1.50953
C         17.01642        31.01761         1.60349
C         18.34225        33.12743         1.30041
C         17.11312        33.89266         0.93810
C         18.29424        36.07179         1.64767
C         17.02264        35.34473         1.30832
C         18.36000        37.59433         1.54408
C         17.08426        38.21351         1.03721
C         19.70595         4.18327        -0.83693
C         20.94796         6.28599        -0.37687
C         19.76065         5.56684        -0.46401
C         20.96753         7.68749        -0.19711
C         19.80647         8.45267        -0.09170
C         21.04655        10.63288        -0.13418
C         19.78680         9.89612        -0.06754
C         21.08891        11.95843        -0.37561
C         19.81706        12.71456        -0.51418
C         21.06717        14.92313        -1.02154
C         19.80479        14.17985        -0.82670
C         21.06722        16.25444        -1.19395
C         19.80430        17.01475        -1.30396
C         20.98762        19.23672        -0.60736
C         19.78207        18.52468        -1.06920
C         20.91866        20.43594         0.02647
C         19.67261        21.16905         0.15015
C         20.72377        23.17993         1.21348
C         19.58426        22.50003         0.67631
C         20.65021        24.49653         1.58633
C         19.43710        25.25170         1.49529
C         20.64316        27.39084         1.83574
C         19.42075        26.66559         1.68609
C         20.67803        28.75911         1.81541
C         19.47377        29.52218         1.72075
C         20.72049        31.70279         1.69433
C         19.48139        30.94596         1.67710
C         20.76285        33.04939         1.80911
C         19.49924        33.84453         2.01343
C         20.61033        35.84564         0.88186
C         19.55314        35.28380         1.51808
C         20.56667        37.22348         0.42125
C         19.53995        38.04551         0.71251
O         13.03372        23.38750        -2.31026
O         12.20452        31.80834         2.16492
O         15.45711        23.32373         1.51352
O         16.82726        15.11051         1.10040
O          2.44135        29.33365        -2.35761
O         16.64005        12.51380         1.48306
O          2.74798        18.89028        -0.53113
O         19.52084        13.13737        -1.87536
O          7.88120        10.46327        -1.87650
O         12.35793         4.79413        -2.14661
O          4.89700        23.65345         1.96606
O         12.34364        13.57893         1.38896
O         18.12925        33.59232        -0.07304
O         14.23370        21.14355        -2.54970
O         19.81154        17.93660        -2.43982
O          5.50245        29.52888        -2.90235
O          1.67685        24.70576         2.64071
O         13.95206        25.72475         1.88377
O         17.39650        35.63017         2.72936
O          5.10454        27.04111        -2.43005
O         10.82954        29.11582         1.70520
O         14.17990        30.43767         2.71916
O          2.31066        16.78867         2.58542
O          5.97495        20.98339         1.88453
O         18.45435         6.84370         1.19120
O          6.33961        24.92511        -2.10756
O         16.23647        29.10004         3.03033
O          5.89328        36.10613        -3.27655
O          4.26055        33.65864        -3.22595
O         15.86796        32.06972        -0.25196
O         19.17642        12.21875         1.67154
H         18.39078        12.10312         2.25540
O          4.57992         5.59159        -1.84355
H          5.30912         5.11656        -2.29684
O         16.88090        20.73286        -2.74537
H         16.16096        20.51539        -3.37869
O         10.36478        33.69559         1.72605
H         10.92692        33.12055         2.30579
O         18.56268        38.11582         2.89340
H         17.93232        37.63169         3.47160
O         11.13652        21.11793         0.71347
H         11.90025        20.65552         1.11676
O         12.61483        35.13257        -1.89562
H         12.82295        36.00920        -2.28466
O         19.24693        33.83799         3.43664
H         18.50137        34.46453         3.60596
O          9.57412        20.87222        -2.58451
H          8.74127        21.24908        -2.93770
O         17.16840        16.92366        -2.78422
H         17.98519        17.35403        -3.13610
H          1.53682         2.33862         1.06021
H         -0.55826         3.53854         1.67712
H         -0.64680         5.99762         1.68225
H         -0.71401         7.89923         1.59224
H         -0.75188        10.32125         1.63502
H         -0.78135        12.19846         1.65661
H         -0.77548        14.62627         1.85645
H         -0.88014        16.60980         1.76937
H         -0.84602        19.01327         1.86670
H         -0.69902        20.87731         2.29605
H         -0.43165        23.23588         2.97603
H         -0.16904        26.35842         2.82717
H         -0.49011        28.44037         1.54108
H         -0.78856        29.97373         0.51341
H         -0.83065        32.24791        -0.27987
H         -0.83876        34.09255        -0.74230
H         -0.74849        36.52305        -1.08201
H          0.53194        38.58105        -1.52834
H          3.91966         2.39424         0.56148
H          2.72223        39.71730        -1.82137
H          6.31646         2.44202         0.02615
H          5.13272        39.62120        -1.66753
H          8.67900         2.48474        -0.42359
H          7.57499        39.54280        -1.15407
H         10.92083         2.41143        -0.27793
H          9.97924        39.42669        -0.74747
H         13.72709         2.47767        -0.14021
H         12.39242        39.34512        -0.36023
H         16.02460         2.44736        -0.99899
H         14.74678        39.31288         0.30204
H         18.48869         2.45564        -1.19436
H         17.06971        39.31224         0.97365
H         20.65112         3.64427        -0.99825
H         21.90225         5.76483        -0.54226
H         21.94813         8.18134        -0.22559
H         21.98955        10.07715        -0.04522
H         22.05463        12.46573        -0.50861
H         22.01642        14.36983        -1.02872
H         22.01189        16.78954        -1.36434
H         21.96644        18.75885        -0.75330
H         21.84974        20.89666         0.38543
H         21.68321        22.65295         1.30323
H         21.56059        24.97792         1.96652
H         21.59359        26.84777         1.91192
H         21.64868        29.26644         1.88265
H         21.67012        31.15382         1.62574
H         21.73502        33.55972         1.86763
H         21.52988        35.27208         0.70066
H         21.42201        37.59532        -0.16142
H         19.55780        39.09676         0.38994
