         576
 CSIRO Nanostructure Databank - Neutral Graphene Oxide Data Set
C          6.00621        18.89898         1.54262
C          5.96128        20.39228         1.78274
C          4.67385        21.07815         1.36838
C          5.79824        23.28995         1.61058
C          4.60696        22.41509         1.26685
C          5.71979        24.70274         1.07317
C          8.48050        14.62978         1.33225
C          8.44928        16.06361         1.42385
C          7.26492        16.77083         1.45876
C          8.47085        18.98121         1.54601
C          7.18944        18.21583         1.51883
C          8.44037        20.38076         0.99896
C          7.12467        21.10880         1.07895
C          8.35406        23.41983         0.97100
C          7.07491        22.60592         1.06957
C          8.15057        24.87992         1.49276
C          6.87313        25.48912         0.94900
C          8.14854        27.50290        -0.09581
C          6.90060        26.76793         0.36480
C          8.18642        29.00431         0.17776
C         10.91914        10.38680         0.82362
C         10.88112        11.82443         0.56105
C          9.76630        12.51528         1.03313
C         10.83860        14.69899         0.64095
C          9.66420        13.94110         1.06001
C         10.85781        16.07179         0.78700
C          9.80393        16.73270         1.64015
C         11.00483        18.99594         1.05318
C          9.78565        18.26377         1.52149
C         11.05816        20.50204         1.30275
C          9.72115        21.14787         0.88613
C         11.02950        23.29541         0.87745
C          9.67693        22.66458         0.86724
C         11.19992        24.65360         1.00820
C          9.31222        25.77008         1.23285
C         10.69162        27.57060         0.29902
C          9.40279        26.87916         0.47234
C         10.65413        28.95335         0.16993
C          9.39747        29.70346         0.22245
C         10.69001        31.87209         0.27314
C          9.46621        31.13564         0.29269
C         10.73633        33.32537         0.31469
C         13.45236         6.18392         0.72857
C         13.31849         7.58878         0.40866
C         12.07612         8.14592         0.61790
C         13.49930        10.52832        -0.53471
C         11.70669         9.47327         0.18281
C         13.35069        12.01824        -0.52777
C         12.01047        12.58056         0.02033
C         13.17126        14.78394        -0.18644
C         11.95754        13.96270         0.07360
C         12.96804        16.21004        -0.55395
C         11.74998        16.92883        -0.05712
C         13.37018        18.96743         0.27661
C         12.02985        18.32326         0.46812
C         13.47402        20.45722         0.34633
C         12.20200        21.18259         0.55365
C         13.29835        23.25886        -0.20525
C         12.15838        22.54135         0.36722
C         13.15828        24.70580        -0.40398
C         12.08329        25.41474         0.17763
C         12.96963        27.52266        -0.64056
C         11.92460        26.83222         0.03489
C         13.16889        28.95088        -0.31750
C         11.91868        29.69974         0.14449
C         13.19380        31.83820         0.25624
C         11.90211        31.16405         0.15169
C         13.22039        33.35652         0.34118
C         11.91852        34.05863         0.29434
C         13.18997        36.18340         0.15553
C         11.98094        35.49464         0.21248
C         13.26696        37.62635         0.12003
C         15.88175         6.20283         0.45616
C         14.63016         5.50751         0.64471
C         15.84380         7.63736         0.21857
C         14.53731         8.26803        -0.25228
C         15.83891        10.51340         0.09333
C         14.58083         9.79951        -0.13920
C         15.84104        11.94262         0.09650
C         14.50181        12.63719         0.29300
C         15.81541        14.71603        -0.45820
C         14.51798        14.13874        -0.01602
C         15.91752        15.91256        -1.10430
C         13.97238        16.96818        -1.06753
C         15.67481        18.90245        -0.97940
C         14.52487        18.15842        -0.30301
C         15.48251        20.37091        -1.30916
C         14.72845        21.16952        -0.19575
C         15.45888        23.36289        -1.45657
C         14.42365        22.59190        -0.63230
C         15.56134        24.78694        -0.85581
C         14.18207        25.41880        -1.06627
C         15.88841        27.85967        -1.23166
C         13.96647        26.77453        -1.29582
C         15.73090        29.05392        -0.62096
C         14.40418        29.74365        -0.69389
C         15.71460        31.86419        -0.10752
C         14.40576        31.18261        -0.32632
C         15.72618        33.35847        -0.37673
C         14.45389        34.07574         0.01113
C         15.69857        36.18259         0.12293
C         14.45369        35.46411         0.06273
C         15.73267        37.60577         0.14098
C         14.46055        38.29498         0.08607
C         18.33739         6.18691         0.64261
C         17.07308         5.50978         0.60204
C         18.25840         7.67035         0.73541
C         17.00789         8.36720         0.35183
C         18.29852        10.53809         0.24578
C         17.05030         9.81263         0.23143
C         18.29698        11.95981         0.08305
C         17.04638        12.64468         0.10051
C         18.30537        14.77159        -0.39059
C         17.05220        14.15348         0.19366
C         18.25530        16.14186        -0.75549
C         17.04884        16.79526        -1.00010
C         18.12196        18.98724        -1.41016
C         16.90304        18.24543        -1.17401
C         18.13287        20.38555        -1.60101
C         16.80959        21.09943        -1.64721
C         18.10271        23.39875        -1.67156
C         16.78355        22.59990        -1.65897
C         18.09658        24.72536        -0.83016
C         16.85527        25.55724        -1.12966
C         18.20059        27.60412        -0.60087
C         16.98980        26.93888        -1.00102
C         18.17927        28.98706        -0.18708
C         16.85283        29.62829         0.21984
C         18.16427        31.84005         0.07529
C         16.85394        31.14955         0.06558
C         18.21916        33.32911         0.16338
C         16.94726        34.07460         0.15600
C         18.14061        36.18623         0.69358
C         16.91973        35.44219         0.29532
C         18.20860        37.63870         0.40258
C         16.96402        38.29975         0.18844
C         20.83344         6.23545         0.67304
C         19.54006         5.52664         0.73195
C         20.82538         7.73358         0.59349
C         19.53063         8.45709         0.77350
C         20.78057        10.56813         0.24366
C         19.54008         9.88531         0.40772
C         20.77342        11.96447        -0.09727
C         19.53446        12.66208        -0.09510
C         20.74863        14.69384        -0.84003
C         19.52647        14.06815        -0.40403
C         20.67555        16.06598        -1.48388
C         19.51947        16.86781        -0.92406
C         20.65838        18.94039        -1.80190
C         19.42400        18.31411        -1.26508
C         20.65160        20.45502        -1.91879
C         19.33642        21.10961        -1.74467
C         20.66942        23.31155        -1.55521
C         19.33917        22.53375        -1.25328
C         20.64152        24.61034        -0.69285
C         19.42683        25.48702        -1.11268
C         20.63171        27.58294        -0.47317
C         19.43823        26.89784        -0.56115
C         20.65444        29.08076        -0.59001
C         19.37010        29.66201        -0.06117
C         20.66843        31.76141         0.65650
C         19.37821        31.04679         0.44297
C         20.63637        33.24979         0.73402
C         19.47764        33.96481         0.62388
C         20.68670        36.17986         0.72996
C         19.43812        35.42965         0.86608
C         20.70311        37.57861         0.59084
C         19.45141        38.28048         0.42444
C         23.30077         6.34373         1.03443
C         22.10109         5.61573         1.04988
C         23.31145         7.76372         0.81952
C         22.03792         8.52894         1.02125
C         23.24768        10.56327         0.12399
C         22.03106         9.90752         0.40647
C         23.24060        11.91794        -0.36110
C         21.99800        12.62369        -0.43221
C         23.14069        14.57866        -1.54317
C         21.94649        13.99683        -0.86488
C         23.16520        16.06128        -1.97721
C         21.96094        16.85065        -1.45930
C         23.18991        18.94114        -1.98956
C         21.93604        18.20558        -1.57484
C         23.17809        20.41796        -1.57714
C         21.94532        21.15452        -1.63008
C         23.15664        23.24387        -1.14637
C         21.93386        22.51257        -1.30280
C         23.18898        24.67558        -1.06541
C         21.94670        25.39295        -0.71212
C         23.13318        27.66978        -0.87024
C         21.91822        26.87192        -0.53401
C         23.16952        29.06527        -0.35904
C         21.94403        29.72666        -0.10087
C         23.18309        31.71610         0.57573
C         21.95381        31.05703         0.37076
C         23.19090        33.12115         1.06564
C         21.90184        33.92539         1.10038
C         23.20259        36.11869         0.64444
C         21.92562        35.43363         0.98017
C         23.21384        37.60946         0.67315
C         21.96952        38.26972         0.61081
C         25.75662         6.38403         1.13430
C         24.56189         5.68644         1.21662
C         25.75920         7.79053         0.79567
C         24.50946         8.46869         0.62739
C         25.72348        10.52148        -0.02390
C         24.50179         9.86644         0.26784
C         25.70515        11.87051        -0.52611
C         24.48225        12.53277        -0.72565
C         25.74654        14.52141        -1.89552
C         24.44010        13.81523        -1.48028
C         25.73934        16.04565        -1.66030
C         24.47416        16.78312        -1.67202
C         25.66986        18.94873        -1.56764
C         24.43134        18.15359        -1.60825
C         25.58176        20.28852        -0.86203
C         24.35656        21.09501        -1.24655
C         25.59695        23.26768        -0.91145
C         24.38535        22.52410        -1.10105
C         25.60597        24.66943        -0.90495
C         24.38983        25.39439        -1.02724
C         25.65938        27.63555        -0.82781
C         24.40324        26.89710        -1.07830
C         25.66850        28.95797        -0.41021
C         24.41837        29.69243        -0.14038
C         25.66986        31.75060         0.47312
C         24.41570        31.05267         0.30611
C         25.73595        33.13062         0.69356
C         24.49466        33.87087         1.03023
C         25.73393        36.11259         0.90938
C         24.46913        35.34419         0.71520
C         25.72403        37.57960         0.62312
C         24.45987        38.26673         0.63687
C         28.21446         6.36675         1.24509
C         27.01833         5.70400         1.31383
C         28.24422         7.87822         1.14752
C         26.96657         8.49875         0.64154
C         28.22365        10.48570        -0.16793
C         26.97219         9.83138         0.16398
C         28.21096        11.79363        -0.65641
C         26.96969        12.53654        -0.82915
C         28.25378        14.55091        -1.53318
C         26.98025        13.84235        -1.30859
C         28.24423        16.03344        -1.78846
C         26.93402        16.73145        -1.67020
C         28.21528        18.87274        -1.17290
C         26.96700        18.20832        -1.61648
C         28.12565        20.25428        -0.61448
C         26.89332        21.04496        -0.96382
C         28.06351        23.23118        -0.25578
C         26.89197        22.53385        -0.88485
C         28.11682        24.72578        -0.34257
C         26.85578        25.45772        -0.65190
C         28.22165        27.60752        -0.91084
C         26.90657        26.87760        -1.23482
C         28.17744        28.98502        -0.35570
C         26.94267        29.60865        -0.13358
C         28.23062        31.72043         0.56079
C         26.90842        30.95317         0.46905
C         28.19188        33.18661         0.54868
C         26.97111        33.85249         0.68283
C         28.25541        36.04007         0.53859
C         27.00457        35.32640         0.84680
C         28.20158        37.47605         0.07301
C         26.92705        38.21851         0.41453
C         30.66495         6.27494         1.14549
C         29.46494         5.67896         1.44759
C         30.65900         7.57813         0.44180
C         29.45852         8.41426         0.44240
C         30.75941        10.35316        -0.25908
C         29.47467         9.71468        -0.04244
C         30.79976        11.75231        -0.75831
C         29.48789        12.45172        -1.04492
C         30.67411        14.64520        -0.87228
C         29.52554        13.92375        -1.10791
C         30.59891        16.15415        -0.69665
C         29.57561        16.80047        -1.67540
C         30.67604        18.98911        -1.15700
C         29.40407        18.23453        -1.23874
C         30.67147        20.43467        -0.73971
C         29.37246        20.99811        -0.26228
C         30.61750        23.22937         0.32318
C         29.31304        22.47532         0.05224
C         30.60798        24.66204        -0.22101
C         29.45009        25.35150        -0.50223
C         30.68577        27.50880        -0.14224
C         29.49845        26.81885        -0.68390
C         30.67302        28.90889        -0.03173
C         29.43905        29.64364        -0.09777
C         30.66643        31.78562         0.23745
C         29.47181        31.04640         0.16811
C         30.64460        33.17764         0.50095
C         29.43211        33.89237         0.54939
C         30.71699        36.05880         0.47867
C         29.44269        35.34469         0.52958
C         30.68943        37.51789         0.41868
C         29.49904        38.19771         0.34273
C         33.13482         6.28933         1.25645
C         31.93921         5.64866         1.41122
C         33.24202         7.65630         0.78280
C         32.01409         8.26702         0.21608
C         33.22202        10.45715         0.04584
C         31.94813         9.71161         0.02500
C         33.10267        11.92731         0.23452
C         31.95356        12.60625        -0.41100
C         33.01720        14.82195         0.12240
C         31.89558        13.97793        -0.47418
C         33.16993        16.19781        -0.49610
C         31.93961        16.88737        -0.80517
C         33.19345        19.01420        -1.15217
C         31.93830        18.24894        -1.00816
C         33.21246        20.55440        -1.03492
C         31.92965        21.12164        -0.41101
C         33.10092        23.17107         0.02854
C         31.88216        22.46681        -0.05358
C         33.12202        24.61341        -0.13164
C         31.85918        25.37713        -0.12256
C         33.08168        27.45082         0.66305
C         31.88218        26.75969         0.03884
C         33.11215        28.93306         0.41360
C         31.93180        29.60235         0.19624
C         33.11364        31.73041         0.75755
C         31.97876        31.09091        -0.04847
C         33.18945        33.24486         0.52010
C         31.87494        33.91029         0.98003
C         33.18462        36.05783         0.74172
C         31.89959        35.37932         0.65300
C         33.14565        37.50920         0.62247
C         31.97662        38.19232         0.49717
C         34.40425         8.37263         0.88869
C         35.66485        10.61303         0.84649
C         34.51012         9.78029         0.44961
C         35.62343        12.00956         0.82357
C         34.31468        12.69437         0.60291
C         35.50228        14.90830         0.54931
C         34.36398        14.08893         0.03065
C         35.62389        16.20139         0.01621
C         34.40548        16.82681        -0.53938
C         35.77013        19.00348        -0.80053
C         34.48019        18.23864        -0.97829
C         35.66572        20.42497        -0.34383
C         34.46720        21.07030        -0.32549
C         35.57353        23.19934         0.55096
C         34.30971        22.37970         0.43688
C         35.59721        24.57184         0.53663
C         34.42468        25.35587         0.10588
C         35.61771        27.45127         0.62499
C         34.40696        26.77885         0.43038
C         35.62058        28.88775         0.61387
C         34.39769        29.62676         0.51823
C         35.66490        31.75746         0.65363
C         34.42806        31.02145         0.56103
C         35.66355        33.14919         0.82163
C         34.40405        33.88220         1.22512
C         34.36201        35.37684         0.96546
C         36.70764        12.84491         1.14363
C         37.82000        15.03553         1.42967
C         36.51732        14.30384         1.47775
C         37.99196        16.27540         0.78413
C         36.86918        16.87724         0.08128
C         38.30021        18.99839        -0.15807
C         37.02654        18.23804        -0.46433
C         38.21073        20.43668         0.24317
C         36.83668        21.00420         0.39953
C         38.04264        23.17300         1.13468
C         36.79280        22.43518         0.84688
C         37.86403        24.51733         1.43118
C         36.77888        25.30713         0.93546
C         38.12510        27.44720         0.74707
C         36.86433        26.71168         0.80011
C         38.08643        28.82983         0.60596
C         36.86756        29.59452         0.61025
C         36.87982        30.99728         0.58879
C         39.23903        16.93071         0.86468
C         40.65609        19.01021         0.70644
C         39.55496        18.17963         0.09321
C         40.59854        20.36684         0.94711
C         39.37065        21.13234         0.87115
C         40.59922        23.24467         1.26842
C         39.32678        22.50242         1.17999
C         40.77965        24.61674         1.08551
C         39.72964        25.59516         1.23579
C         39.42977        26.78027         0.61360
C         41.80890        21.09143         1.28257
C         41.80951        22.44686         1.34995
O         13.79249        19.63477         1.53402
O         19.75485        17.84050         0.12705
O         33.31225        12.40897         1.63729
O         27.31731        25.37749         0.73238
O         14.88302        27.44820        -2.11074
O         28.31777        15.10888        -2.91313
O         13.96499        14.86809         1.14337
O         14.86876        16.33330        -1.92286
O         28.64060        20.24786         0.76207
O         12.91231        29.15945         1.11334
O         33.94261        18.53097        -2.31719
O          9.25575        18.85464         2.77150
O         12.35700         9.86396        -1.01736
O          9.12930        20.51701        -0.28178
O         23.95200        33.38510         2.29084
O         36.66297        18.54397        -1.86035
O         19.90077        31.19163         1.80239
O         36.56085        21.30387         1.79887
O          8.97656        23.24549        -0.31450
O         20.97252         7.02793        -0.64737
O          6.78006        21.83012        -0.13009
O         28.32721        22.74550         1.10159
O         23.53977        13.68615        -2.63377
O         10.43607        25.34601         1.95888
O         26.42068        18.90585        -2.81031
O         18.61667        35.83112         2.03428
O         38.79841        25.18085         2.21700
O         30.27191        11.82791        -2.12071
O         16.69479        21.82120        -2.91675
O         22.96588        16.14071        -3.38421
O         21.84403        34.76513         2.29148
O         23.62531        27.45891        -2.22437
O         23.83483        35.58394        -0.58841
O         20.60078        19.55927        -3.09793
O         18.82471         8.15921         2.01893
O         27.62686        31.08143         1.74031
O         22.16602        26.01640         0.64529
O         34.00143        25.04004        -1.27388
O         27.13398        21.84211        -2.16180
O         38.53029        20.05273        -1.14460
O         30.68666        20.05922        -2.16614
O         31.36127         7.50554        -0.84053
O         13.42560        32.49421         1.54081
O         34.15861        10.02865        -0.99136
O         18.40621        32.62193        -1.15496
O         26.40690        35.77610         2.15569
O         14.21905        30.75503        -1.73328
O         29.16150        27.40161        -2.02064
O         18.22388        23.81529        -3.04138
H         17.91166        23.06394        -3.59982
O         25.87040        14.35969        -3.32528
H         24.96319        14.47971        -3.69791
O         20.38509        15.84853        -2.88974
H         21.27727        15.82627        -3.36194
O         33.38693        33.54939        -0.87179
H         32.92833        32.86965        -1.42173
O         35.97674        14.42427         2.85683
H         36.58047        13.93434         3.45421
O         28.37700         8.34381         2.54606
H         27.61313         7.98422         3.04580
O         15.81641        33.48398        -1.83955
H         16.69144        33.10112        -2.09238
O         20.64619        29.36611        -2.04412
H         21.41416        28.90403        -2.44693
O          8.14564        27.37504        -1.55680
H          8.99170        27.74221        -1.88957
O          5.84323        23.31979         3.06949
H          6.57092        23.93711         3.33860
O         11.25319        20.77183         2.70808
H         12.08169        20.31697         2.97571
O         30.19777        16.82360        -2.96954
H         29.76172        16.13352        -3.52339
O         15.69308        21.28385         0.87629
H         15.24771        21.68204         1.65348
O         14.87340        23.55636        -2.76159
H         14.88186        22.68129        -3.21308
O         14.61048        20.43122        -2.46292
H         15.11037        20.11407        -3.24510
O         15.14122        17.50361         0.85257
H         15.11425        18.15899         1.58874
O         30.72630        23.39231         1.76140
H         29.80428        23.41762         2.11413
O         26.80590        26.72176        -2.66910
H         27.70436        26.88080        -3.04483
O         14.42825         7.95116        -1.67078
H         13.59076         8.35840        -1.98569
O         32.64622        15.05387         1.50493
H         32.74658        14.18777         1.97543
O          8.04992        24.79415         2.94489
H          8.96892        24.83794         3.29717
O         19.57432        25.77976        -2.52545
H         18.74079        26.18941        -2.84162
O         33.98802        21.94239         1.80623
H         33.81538        22.73792         2.35339
O         28.13097        37.36551        -1.41256
H         29.01316        37.06930        -1.72501
O         17.02660        14.51185         1.61474
H         16.12128        14.82638         1.83160
O         20.54198        24.17199         0.68081
H         20.93278        24.89656         1.23304
O         30.11617        16.36123         0.65671
H         30.81628        16.01844         1.26402
O         18.04330        24.48302         0.58458
H         18.81898        23.92022         0.85168
O         10.92995        17.18283        -1.26919
H         10.78265        16.32292        -1.71823
O         40.05741        17.76590        -1.21960
H         39.85392        18.50208        -1.83954
O         31.74710        33.87272         2.44244
H         31.60641        32.92601         2.68891
O         19.20473        22.25484         0.17301
H         20.05153        21.88113         0.49798
O         33.26701        21.09648        -2.37315
H         33.55217        20.36922        -2.97426
O         32.78645        31.50130         2.16048
H         33.51049        31.93464         2.68136
O         13.48437        12.47882        -1.89706
H         12.87691        11.94602        -2.45282
O         32.85972        27.29799         2.12174
H         32.14361        27.91830         2.37906
O          6.14682        20.57504         3.21233
H          5.95679        21.52764         3.41752
O         14.17327        12.42357         1.68150
H         13.92597        13.30821         2.05246
O         15.50891        24.67642         0.59867
H         16.42554        24.59229         0.96412
O         16.64131        29.31306         1.61712
H         15.73877        29.59917         1.87234
O         34.58678        13.92110        -1.40122
H         35.47634        13.53336        -1.54052
O         23.20366        18.91490        -3.43858
H         23.13350        17.94813        -3.69333
O         32.25913        31.24032        -1.47639
H         31.56423        30.75657        -1.97165
O         10.16280        16.43027         3.01914
H          9.70927        17.10739         3.57370
O         20.79488        23.56702        -2.95377
H         20.07255        24.17887        -3.24370
O         34.32051        33.68925         2.67485
H         33.46312        34.10359         2.95865
O         25.41528        19.94988         0.54710
H         25.52637        20.76092         1.08684
O         21.90154         8.71322         2.46955
H         22.58960         9.34697         2.76195
H          5.05620        18.34220         1.51409
H          3.78827        20.46022         1.15258
H          3.66535        22.90677         0.97708
H          4.75479        25.08903         0.70920
H          7.53379        14.07252         1.40734
H          6.31301        16.21566         1.44487
H          5.94369        27.18178         0.00761
H          7.23950        29.56634         0.17074
H         10.32837        10.03733         1.68439
H          8.92651        11.93127         1.44005
H          8.52080        31.69504         0.36486
H          9.77809        33.86754         0.31926
H         12.53515         5.64093         1.00447
H         11.33046         7.55477         1.17565
H         11.03828        36.06345         0.21608
H         12.32580        38.19640         0.12489
H         14.66008         4.42606         0.84284
H         14.46625        39.39495         0.06374
H         17.05054         4.41609         0.72237
H         16.95763        39.39671         0.09530
H         19.55405         4.42658         0.76842
H         19.48786        39.36988         0.27143
H         22.12279         4.54172         1.28899
H         21.95826        39.36949         0.57262
H         24.57553         4.60448         1.41460
H         24.47200        39.36392         0.54355
H         27.00386         4.61527         1.47553
H         26.92782        39.30578         0.23582
H         29.44425         4.65348         1.84830
H         29.50092        39.29861         0.31629
H         34.06465         5.77248         1.53675
H         31.92618         4.62471         1.81406
H         34.09823        38.05811         0.66994
H         31.98657        39.29119         0.44053
H         35.28584         7.90993         1.35938
H         36.59443        10.10375         1.14170
H         36.62691        33.68147         0.86716
H         35.29910        35.94948         1.05822
H         37.72507        12.42467         1.15961
H         38.65918        14.62902         2.01573
H         39.03516        29.37929         0.51103
H         37.84316        31.52877         0.60227
H         40.05247        16.43992         1.41919
H         41.63218        18.50928         0.80547
H         41.80201        24.96719         0.86916
H         40.16897        27.25395        -0.04974
H         42.74658        20.52664         1.38615
H         42.75777        22.98260         1.50575
