         429
 CSIRO Nanostructure Databank - Neutral Graphene Oxide Data Set
C          1.18078         3.40096        -0.27976
C         -0.01892         4.06925        -0.49397
C          1.13874         6.21762        -0.74381
C         -0.04681         5.45010        -0.72095
C          1.10435         7.64695        -0.90186
C         -0.07104         8.42165        -1.02826
C          1.19508        10.53721        -0.90746
C         -0.01824         9.80458        -1.14061
C          1.20394        11.99785        -0.80251
C          0.22414        12.78149        -1.33410
C          1.16218        14.85796        -0.43184
C          0.13650        14.19393        -1.02341
C          0.96699        16.18276         0.26560
C         -0.04296        17.12866        -0.33504
C          0.97692        19.03567         0.81153
C         -0.04264        18.45526        -0.03287
C          1.11787        20.47190         0.97517
C         -0.03850        21.25698         0.78251
C          1.14043        23.40756         0.70495
C         -0.02329        22.65444         0.62126
C          1.14501        24.84887         0.52693
C         -0.05538        25.56292         0.27592
C          1.12421        27.69735         0.20048
C         -0.06924        26.94001         0.14404
C          1.11179        29.14127        -0.03431
C         -0.04316        29.89222        -0.06000
C          1.12770        32.03924        -0.37841
C         -0.02534        31.31364        -0.21521
C          1.09739        33.55253        -0.46280
C          0.11616        34.17865         0.49918
C          1.39212        36.25457         0.48961
C          0.24232        35.46273         0.88714
C          1.45875        37.63966         0.82709
C          3.64155         3.43399        -0.10541
C          2.41203         4.10706        -0.30729
C          3.63020         6.20762        -0.57923
C          2.39628         5.52640        -0.55123
C          3.67105         7.64629        -0.87892
C          2.36986         8.39143        -0.98717
C          3.58327        10.44300        -0.03909
C          2.38097         9.84075        -0.73876
C          3.63671        11.94278        -0.07623
C          2.29189        12.62744         0.05743
C          3.52860        14.77293         0.62850
C          2.48063        14.11987        -0.30026
C          3.62948        16.30573         0.38245
C          2.23854        16.89750         0.65484
C          3.89204        19.21913         1.31597
C          2.00505        18.13800         1.22437
C          3.64926        20.58001         0.96827
C          2.39423        21.18135         1.03494
C          3.66217        23.41252         0.85900
C          2.37429        22.69714         1.21781
C          3.61986        24.88662         0.93718
C          2.35044        25.59955         0.61943
C          3.61587        27.76756         0.44543
C          2.34053        26.99776         0.41655
C          3.66208        29.20897         0.03694
C          2.37666        29.82555        -0.38541
C          3.69133        32.05553        -0.58451
C          2.39163        31.33004        -0.60835
C          3.65370        33.48746        -0.65607
C          2.46925        34.20832        -0.39649
C          3.66370        36.43693        -0.44083
C          2.47665        35.61719        -0.14162
C          3.76370        37.82351         0.05537
C          2.59068        38.40264         0.61842
C          6.12000         3.42678         0.00986
C          4.87642         4.10429        -0.17701
C          6.08654         6.23588        -0.59526
C          4.86253         5.52712        -0.41980
C          6.12688         7.64901        -0.63563
C          4.90969         8.39704        -0.57915
C          6.11520        10.49814        -0.17444
C          4.89352         9.76480        -0.34493
C          6.09306        11.87752         0.15278
C          4.84279        12.63590         0.19047
C          6.09170        14.75707         0.82475
C          4.84364        14.02836         0.50903
C          6.14158        16.23551         0.73305
C          4.85718        16.93244         1.14282
C          6.15252        19.06506         0.45396
C          4.95853        18.43274         0.93691
C          6.09824        20.53124         0.19056
C          4.83241        21.30154         0.44580
C          6.12316        23.44969         0.43721
C          4.84957        22.76827         0.62056
C          6.16106        24.84502         0.44213
C          4.92921        25.60380         0.72483
C          6.14785        27.72981        -0.05450
C          4.86883        26.99526         0.20563
C          6.15389        29.20795        -0.13966
C          4.93731        29.90525        -0.31033
C          6.20284        32.00081        -0.72976
C          4.89769        31.31619        -0.55237
C          6.24112        33.49703        -0.79597
C          4.92936        34.22196        -0.88183
C          6.21941        36.38151        -0.46749
C          4.94985        35.71176        -0.76436
C          6.20370        37.82227        -0.34185
C          4.97360        38.49929        -0.08222
C          8.60004         3.45479         0.03871
C          7.35012         4.06423        -0.21105
C          8.64003         6.21957        -0.80449
C          7.32179         5.45297        -0.71900
C          8.59126         7.68619        -0.70617
C          7.36490         8.37639        -0.62746
C          8.58581        10.49348        -0.48014
C          7.35476         9.79515        -0.40735
C          8.66010        11.88554        -0.00363
C          7.35864        12.54659         0.46319
C          8.63734        14.78187         0.40652
C          7.40340        14.02484         0.71072
C          8.62143        16.19173         0.43539
C          7.33962        16.91124         0.55916
C          8.59853        19.05642        -0.09149
C          7.33372        18.35994         0.36469
C          8.58171        20.56568         0.14063
C          7.37906        21.27715         0.20009
C          8.58200        23.41379         0.24069
C          7.34927        22.70278         0.28307
C          8.60545        24.85313         0.26877
C          7.38649        25.57255         0.27870
C          8.60960        27.71824         0.26840
C          7.40438        27.00229         0.19702
C          8.61655        29.16240         0.17803
C          7.41619        29.85697        -0.05933
C          8.67350        32.06727         0.01819
C          7.48209        31.29058        -0.39272
C          8.60662        33.48824         0.07832
C          7.45574        34.21813        -0.32455
C          8.58870        36.43028         0.13912
C          7.39185        35.64510        -0.25290
C          8.65473        37.85913        -0.26261
C          7.42565        38.53320        -0.38722
C         11.04796         3.54618         0.43009
C          9.83379         4.15901        -0.01024
C         11.06570         6.28866        -0.31342
C          9.87064         5.53886        -0.38103
C         11.04712         7.68696        -0.55440
C          9.82242         8.38901        -0.66954
C         11.00331        10.57447        -1.04507
C          9.79217         9.81939        -0.71466
C         11.02384        12.10474        -0.86169
C          9.83481        12.71123        -0.25898
C         11.08099        14.80937        -0.01985
C          9.84850        14.08945         0.06825
C         11.08041        16.22309         0.15387
C          9.85241        16.90560         0.32571
C         11.09604        19.11645         0.18467
C          9.82219        18.40158         0.56602
C         11.08377        20.53362         0.11051
C          9.81747        21.27394         0.13528
C         11.04295        23.45118         0.00856
C          9.79557        22.68326         0.13488
C         11.06986        24.88545         0.34296
C          9.84286        25.58297         0.33629
C         11.07451        27.72365         0.47606
C          9.84160        27.00924         0.37984
C         11.07872        29.17478         0.46702
C          9.86198        29.88239         0.29426
C         11.10277        32.00251         0.49496
C          9.85855        31.32677         0.28886
C         11.10226        33.46493         0.71249
C          9.80216        34.21319         0.59318
C         11.17130        36.45147         0.51919
C          9.82760        35.71858         0.53368
C         11.13363        37.80330        -0.18665
C          9.90258        38.48129        -0.38748
C         13.46724         3.65814         0.96835
C         12.25060         4.25808         0.50714
C         13.50535         6.34065         0.09057
C         12.29750         5.63875         0.08942
C         13.56223         7.67419        -0.61369
C         12.29752         8.49414        -0.31960
C         13.59671        10.56129        -1.12928
C         12.30016         9.82651        -1.05608
C         13.61961        12.10464        -1.18604
C         12.32261        12.78787        -0.70536
C         13.59625        14.81090         0.13019
C         12.31989        14.09216        -0.26683
C         13.54643        16.28688        -0.16003
C         12.33936        16.95639        -0.00204
C         13.50807        19.12827        -0.20919
C         12.30126        18.41393        -0.00648
C         13.54662        20.53016        -0.04290
C         12.31135        21.22192         0.07228
C         13.52427        23.38728         0.54446
C         12.33039        22.69343        -0.00066
C         13.54187        24.85918         0.58353
C         12.30141        25.57604         0.51826
C         13.52118        27.73071         0.89064
C         12.27405        27.00301         0.61031
C         13.55798        29.19203         0.74013
C         12.32600        29.88295         0.59229
C         13.56213        32.06950         0.82883
C         12.30259        31.31246         0.61667
C         13.56934        33.49668         0.41988
C         12.37859        34.17923         0.45292
C         13.57950        36.25757        -0.38776
C         12.29649        35.57819        -0.00660
C         13.59924        37.73846        -0.44352
C         12.34391        38.42575        -0.47969
C         15.87769         3.75856         1.49789
C         14.64625         4.38236         1.05967
C         15.87573         6.52690         0.73145
C         14.68806         5.76363         0.62255
C         15.97635         7.84748         0.22483
C         14.79930         8.50080        -0.33422
C         16.13202        10.50391        -0.95567
C         14.81788         9.82714        -0.67530
C         16.10772        11.99125        -0.69526
C         14.80428        12.62772        -0.32032
C         16.01410        14.83397        -0.61637
C         14.85301        14.12868        -0.33766
C         15.96587        16.28855        -0.73614
C         14.77360        16.95967        -0.52294
C         15.99976        19.21828        -0.80999
C         14.70436        18.42790        -0.69094
C         16.01702        20.61039        -0.31860
C         14.81127        21.23709         0.00232
C         16.08458        23.38623         0.59334
C         14.80884        22.60794         0.55418
C         16.01561        24.84926         0.46755
C         14.79902        25.51906         0.59059
C         16.08250        27.72677         0.65321
C         14.82817        26.97546         0.84017
C         16.04166        29.14780         0.81682
C         14.82351        29.84443         0.82577
C         16.11855        32.02607         0.52607
C         14.86034        31.32631         0.90044
C         16.07598        33.42697         0.19086
C         14.83411        34.14702         0.11241
C         16.06420        36.22269        -0.38272
C         14.84323        35.51656        -0.22271
C         16.05435        37.65255        -0.60533
C         14.81219        38.37842        -0.59139
C         18.26451         3.86436         2.09335
C         17.02595         4.48142         1.67363
C         18.32180         6.63140         1.36350
C         16.97996         5.99075         1.60485
C         18.38442         7.95650         0.87071
C         17.19826         8.57174         0.31978
C         18.50349        10.58056        -0.23232
C         17.31050         9.87279        -0.25375
C         18.57544        11.90277        -0.97550
C         17.27921        12.70071        -0.79278
C         18.49176        14.87998        -0.92952
C         17.27620        14.13815        -0.78364
C         18.48184        16.26205        -1.02453
C         17.18742        17.01106        -1.29112
C         18.45421        19.18482        -0.85947
C         17.27356        18.48100        -0.89349
C         18.48393        20.61011        -0.53258
C         17.28500        21.26754        -0.21174
C         18.55432        23.47389        -0.09860
C         17.35356        22.67434         0.23438
C         18.52113        24.86572        -0.02984
C         17.20323        25.60585        -0.07230
C         18.51449        27.77030         0.29249
C         17.26318        27.04849         0.37313
C         18.56135        29.12365         0.60244
C         17.33852        29.88814         1.05840
C         18.55955        32.00046         0.28576
C         17.31555        31.32413         0.54354
C         18.54583        33.40258        -0.00298
C         17.29831        34.10867        -0.06102
C         18.52379        36.22104        -0.53673
C         17.29476        35.51856        -0.32349
C         18.49990        37.62800        -0.79196
C         17.25790        38.32109        -0.80365
C         19.42105         4.57703         2.19049
C         20.71974         6.66924         1.76960
C         19.48880         5.97247         1.79167
C         20.77577         7.99079         1.35350
C         19.62142         8.66072         0.88628
C         20.77816        10.85828         0.59684
C         19.66892        10.03793         0.41127
C         20.79172        12.20913         0.13501
C         19.77444        12.73764        -0.60769
C         21.01758        14.93284        -0.87680
C         19.78962        14.12453        -1.20435
C         21.00661        16.26744        -0.97176
C         19.74688        16.99689        -1.24412
C         20.97721        19.26708        -0.97445
C         19.73462        18.51197        -1.19319
C         20.95683        20.58861        -0.66955
C         19.73233        21.32929        -0.49564
C         20.95824        23.52375        -0.49428
C         19.76428        22.74998        -0.34927
C         20.93926        24.89346        -0.40740
C         19.72629        25.62728        -0.19185
C         20.90723        27.82359        -0.31540
C         19.71867        27.04391        -0.08079
C         20.98657        29.13176         0.02190
C         19.87919        29.83909         0.75568
C         20.98769        32.03794         0.24985
C         19.80104        31.31511         0.38406
C         20.98050        33.40112        -0.04599
C         19.77660        34.10378        -0.19396
C         20.95192        36.25358        -0.72730
C         19.76945        35.53188        -0.49130
C         20.92132        37.62991        -0.98798
C         19.71646        38.31707        -1.01501
O          6.82890        14.30030         2.04636
O          8.22922        11.87707         1.42646
O          5.35210        27.10256        -1.16055
O         14.22308        31.84231         2.13056
O          8.94400        36.26388         1.57995
O         19.72972        17.79065        -2.49895
O         12.99930         9.92634        -2.33127
O         11.80852        23.21157        -1.26016
O         14.00142        22.74093         1.77854
O          5.68500        33.88601        -2.10087
O         16.98436        22.88454         1.65914
O          3.15132         7.99960        -2.21558
O          2.93378        18.63739         2.14251
O          4.38182        25.45695         2.06849
O         15.15210        18.96442        -1.98529
O          5.20074        20.88733        -0.92958
O         12.64382        35.71440        -1.41511
O          4.15138        36.32591        -1.82526
O          8.00630         5.64834        -2.00261
O          3.66956        28.81286         1.46843
O         14.19075        27.28035         2.13171
O         10.31046        33.79093         1.91010
O          2.36811        30.36453        -1.73542
O         10.82362        11.46731        -2.18297
O          7.05589        31.46894        -1.80321
O          4.68828        16.63729         2.56258
H          5.56677        16.69185         2.99544
O          3.04122        14.65292         2.00296
H          3.64149        15.22117         2.56073
O          3.29961        10.10014         1.37930
H          2.62326        10.76154         1.68481
O          9.64660        18.59740         2.00116
H         10.40268        18.17608         2.46143
O         17.05292        16.98455        -2.74794
H         17.84918        17.44458        -3.10717
O         11.52062        36.72300         1.89846
H         10.67272        36.82857         2.38915
O         12.30328         8.87292         1.08742
H         12.28156         8.05197         1.62387
O         16.91190        25.70026        -1.53518
H         17.69026        26.12325        -1.95868
O         20.21521        29.78783         2.18387
H         19.37291        29.94265         2.67654
O         17.46691        30.01332         2.52741
H         16.64006        30.42577         2.86228
O         16.60783         6.42096         2.97615
H         17.30010         6.07495         3.57953
O         13.62258        14.71218         1.60410
H         13.69082        13.74700         1.80652
O          3.07534        14.11807        -1.63642
H          2.41621        13.73262        -2.25368
O         13.85144        12.50466        -2.53846
H         13.37086        11.87079        -3.11707
O          0.59635        33.86414        -1.80660
H          1.24518        33.51334        -2.45376
O         13.59141         7.33709        -2.02257
H         13.61865         8.18620        -2.52906
O          8.73516        18.84833        -1.51985
H          7.95665        19.24530        -1.96426
O         19.82088        13.95737        -2.67025
H         19.67073        14.84155        -3.07047
O          0.40730        15.77252         1.58154
H          1.12271        15.25775         2.02983
O          2.29606        22.83398         2.68747
H          1.43182        22.46590         2.97063
O          3.89182        16.57753        -1.00728
H          3.56524        15.82012        -1.55468
O         14.48104        12.16254         1.04316
H         15.30288        12.20478         1.57748
O          1.83424        12.41889         1.42578
H          2.33672        13.05027         2.00194
O         16.29612        10.32053        -2.39600
H         17.17250        10.71876        -2.64691
O         18.69654        11.55740        -2.39575
H         19.01782        12.37318        -2.85979
H          1.18575         2.31720        -0.09504
H         -0.96434         3.50904        -0.47913
H         -1.01774         5.93937        -0.87817
H         -1.05339         7.92964        -1.06334
H         -0.95610        10.36053        -1.27769
H         -0.59623        12.33000        -1.91090
H         -0.82955        14.68972        -1.19667
H         -0.82904        16.72415        -0.98888
H         -0.79672        19.10864        -0.49536
H         -1.01038        20.75161         0.70173
H         -0.98149        23.13841         0.38708
H         -1.00958        25.02550         0.19977
H         -1.02823        27.44220        -0.04103
H         -1.01589        29.42045         0.13592
H         -0.98817        31.83706        -0.13248
H         -0.75984        33.59542         0.81658
H         -0.51364        35.93069         1.53534
H          0.57978        38.09753         1.30392
H          3.62771         2.34930         0.07957
H          2.60979        39.45740         0.92836
H          6.10661         2.37142         0.32136
H          5.01722        39.57153         0.16194
H          8.61251         2.40837         0.38022
H          7.41155        39.62881        -0.48510
H         11.02645         2.49061         0.74039
H          9.93606        39.53002        -0.72257
H         13.45678         2.59863         1.26594
H         12.33834        39.48082        -0.79666
H         15.88170         2.66980         1.66410
H         14.84595        39.47384        -0.69043
H         18.25811         2.78714         2.31866
H         17.25460        39.40804        -0.97344
H         20.35021         4.08365         2.51104
H         21.63551         6.15578         2.09602
H         21.74455         8.50885         1.36010
H         21.66394        10.48914         1.13032
H         21.67688        12.81310         0.38141
H         21.97025        14.41200        -0.70549
H         21.93744        16.83603        -0.83702
H         21.93977        18.76759        -1.14704
H         21.91560        21.11199        -0.55592
H         21.91858        23.02551        -0.68241
H         21.88871        25.43560        -0.50946
H         21.77499        27.34645        -0.79271
H         21.92222        29.67280        -0.17664
H         21.95581        31.53980         0.39195
H         21.94362        33.91821        -0.14584
H         21.92599        35.74704        -0.71263
H         21.86367        38.16597        -1.16768
H         19.69525        39.39837        -1.21180
