         334
 CSIRO Nanostructure Databank - Neutral Graphene Oxide Data Set
C         30.46405        57.19354        -0.97287
C         30.44653        58.57400        -1.14316
C         29.24608        59.32884        -1.29932
C         30.45975        61.45587        -1.14521
C         29.27161        60.71865        -1.31269
C         32.81725        52.92931         0.02898
C         32.80640        54.34540        -0.01523
C         31.62108        55.06941        -0.33797
C         32.82983        57.18947        -0.29644
C         31.64687        56.47639        -0.56567
C         32.95605        58.59308        -0.66624
C         31.71207        59.33200        -1.12591
C         32.91942        61.49209        -0.82901
C         31.70101        60.80777        -1.00566
C         35.26285        48.64440         0.14228
C         35.19454        50.03669         0.38114
C         34.01854        50.78014         0.25981
C         35.20912        52.94476         0.53216
C         34.00009        52.21375         0.31455
C         35.23811        54.35401         0.40050
C         34.03055        55.04812         0.19855
C         35.31001        57.17398        -0.16822
C         34.01727        56.54525         0.36650
C         35.34394        58.66791         0.04664
C         34.02895        59.40448         0.02569
C         35.34544        61.48553        -0.36109
C         34.12776        60.83087        -0.47327
C         37.78159        44.44370        -0.27290
C         37.75440        45.82888         0.00120
C         36.52993        46.54328        -0.00052
C         37.73224        48.66125         0.40992
C         36.48136        47.93257         0.21503
C         37.71823        50.02290         0.63443
C         36.43477        50.71213         0.82026
C         37.71221        52.96189         0.92184
C         36.43394        52.24653         0.92261
C         37.73403        54.34544         0.74559
C         36.50675        55.07480         0.50816
C         37.76449        57.18556         0.44490
C         36.54561        56.45921         0.32638
C         37.77470        58.62003         0.38518
C         36.51789        59.34538         0.19610
C         37.72587        61.48951         0.26674
C         36.54852        60.81161         0.07026
C         40.18949        40.19463        -0.58081
C         40.20841        41.56724        -0.68018
C         38.99731        42.33347        -0.63190
C         40.23569        44.41036        -0.05391
C         38.99015        43.71063        -0.33841
C         40.22476        45.79156         0.28047
C         38.98639        46.53399         0.27011
C         40.20225        48.64986         0.72443
C         38.98929        47.93285         0.44637
C         40.23326        50.04287         0.77843
C         38.98126        50.83998         0.48480
C         40.23510        52.93526         1.02038
C         38.95317        52.17143         1.26815
C         40.22563        54.35006         0.92027
C         38.98280        55.06539         0.79742
C         40.21722        57.20578         0.73556
C         38.98524        56.47740         0.67700
C         40.20364        58.62875         0.68467
C         38.96260        59.32618         0.57914
C         40.23553        61.48805         0.50131
C         38.93761        60.81364         0.84699
C         42.78316        35.89865        -0.97161
C         42.70911        37.25832        -0.61091
C         41.50324        37.97377        -0.79704
C         42.70925        40.05006        -0.37079
C         41.38048        39.34456        -0.19922
C         42.73671        41.51767        -0.56656
C         41.48335        42.37609        -0.87863
C         42.66792        44.40632         0.05056
C         41.46326        43.71545        -0.15502
C         42.65168        45.75761         0.46932
C         41.44351        46.45666         0.57027
C         42.72071        48.64054         0.84114
C         41.43939        47.87183         1.11077
C         42.70150        50.07217         0.91694
C         41.45353        50.77116         0.94436
C         42.69148        52.93241         0.94902
C         41.44721        52.21481         0.97667
C         42.69719        54.35758         0.93651
C         41.45837        55.07027         0.88919
C         42.67042        57.23965         0.85635
C         41.45337        56.50431         0.83267
C         42.64431        58.65571         0.79953
C         41.43361        59.35309         0.71675
C         42.68873        61.48533         0.32603
C         41.42738        60.80801         0.53355
C         45.30642        33.15613        -1.39992
C         44.10537        33.76584        -1.35166
C         45.25683        35.87663        -0.66321
C         43.96153        35.05680        -0.57833
C         45.12214        37.13324         0.18409
C         43.88099        37.91416        -0.03352
C         45.10115        40.01397         0.41241
C         43.92167        39.31764         0.11675
C         45.11743        41.48532         0.45671
C         43.88354        42.25690         0.02495
C         45.20406        44.33778         0.14442
C         43.95301        43.71292        -0.37389
C         45.20338        45.76854         0.47543
C         43.92432        46.47941         0.70966
C         45.18375        48.65180         0.67307
C         43.92770        47.96312         0.69713
C         45.17863        50.08149         0.86052
C         43.92921        50.78803         0.93765
C         45.15105        52.94861         1.02948
C         43.92772        52.22267         0.96163
C         45.15669        54.35578         0.97369
C         43.93878        55.06669         0.91832
C         45.11330        57.20818         0.61189
C         43.93803        56.52423         0.83957
C         45.09732        58.68359         0.29462
C         43.93805        59.41679         0.97328
C         45.15483        61.50458         0.24188
C         43.90755        60.84735         0.47246
C         46.48140        33.74918        -0.77103
C         47.68026        35.66895         0.33647
C         46.48257        35.03772        -0.35332
C         47.67739        37.17722         0.29403
C         46.38481        37.83692         0.60190
C         47.61653        40.06096         0.42436
C         46.36758        39.33344         0.89690
C         47.62012        41.47822         0.37642
C         46.39592        42.20650         0.40250
C         47.65771        44.35916         0.38340
C         46.39485        43.62815         0.31120
C         47.68841        45.75838         0.35367
C         46.42427        46.52739         0.05653
C         47.65704        48.60094         0.55850
C         46.41994        47.94922         0.53517
C         47.63472        50.06688         0.60599
C         46.39660        50.76932         0.98277
C         47.76875        52.98433         1.08461
C         46.41065        52.20726         1.20845
C         47.69888        54.37062         0.67878
C         46.45654        55.14580         1.06434
C         47.61868        57.21651         0.23710
C         46.34179        56.42806         0.23460
C         47.59706        58.67338        -0.11749
C         46.44318        59.36646         0.61385
C         47.63059        61.50820         0.12732
C         46.39774        60.85051         0.29678
C         48.81344        37.89896         0.12851
C         50.03402        40.05743         0.06153
C         48.82673        39.35630         0.19907
C         50.09021        41.47445         0.16749
C         48.86220        42.19752         0.28693
C         50.12407        44.32218         0.34347
C         48.88486        43.62029         0.35790
C         50.15063        45.74778         0.40068
C         48.91527        46.47222         0.40285
C         50.16330        48.60633         0.43074
C         48.90677        47.90273         0.44872
C         50.19126        50.02319         0.40558
C         48.92236        50.78802         0.44553
C         50.06730        52.86017        -0.06066
C         49.07898        52.22171         0.91957
C         50.06884        54.35162         0.06175
C         48.86299        55.03032         0.21726
C         50.11706        57.21594         0.11759
C         48.83578        56.48220        -0.22371
C         50.06745        58.65778         0.33362
C         48.90263        59.36520         0.20619
C         50.10735        61.51000         0.12447
C         48.88529        60.82647         0.18520
C         51.31857        42.18730         0.15173
C         52.58632        44.32234         0.28699
C         51.35432        43.58791         0.25501
C         52.61478        45.70069         0.38255
C         51.39221        46.45022         0.41355
C         52.64080        48.60119         0.34323
C         51.40321        47.88301         0.41100
C         52.64336        50.02409         0.25028
C         51.40228        50.73896         0.27898
C         52.59569        52.86113        -0.02205
C         51.40561        52.16795         0.10322
C         52.59574        54.32140        -0.26511
C         51.29545        55.08504        -0.24128
C         52.58947        57.16616         0.53330
C         51.29566        56.52813         0.08510
C         52.56081        58.64520         0.11579
C         51.34853        59.37838         0.71100
C         52.57191        61.48852         0.26985
C         51.36333        60.84025         0.30520
C         53.94784        46.40528         0.52286
C         55.08050        48.60550         0.18764
C         53.89873        47.90561         0.32282
C         55.11116        50.03737         0.08182
C         53.86521        50.74762         0.12182
C         55.07687        52.89205        -0.08008
C         53.85853        52.17084         0.02055
C         55.08719        54.33702        -0.09818
C         53.86019        55.06346        -0.07338
C         55.05995        57.18345         0.05535
C         53.84602        56.45612         0.06045
C         55.05613        58.63266         0.18057
C         53.86851        59.34266         0.35657
C         55.09090        61.48645         0.11703
C         53.86463        60.81790         0.67605
C         56.31009        50.75528        -0.03998
C         57.53513        52.90143        -0.16216
C         56.32354        52.17775        -0.10139
C         57.56630        54.32598        -0.11857
C         56.30622        55.05053        -0.07257
C         57.52034        57.21372        -0.00989
C         56.29827        56.48013        -0.02901
C         57.50487        58.61959        -0.07101
C         56.30234        59.33749         0.04854
C         57.44693        61.43159        -0.60466
C         56.26070        60.79055        -0.09399
C         58.76866        55.02344        -0.08893
C         59.81891        57.15241        -0.85360
C         58.85152        56.50593         0.11112
C         59.80926        58.51190        -1.03795
C         58.81596        59.35214        -0.24809
C         59.71673        61.34005        -1.50924
C         58.63175        60.74676        -0.81149
C         60.79540        59.17898        -1.82722
C         60.77997        60.56291        -1.98522
O         45.59086        37.05233         1.57317
O         44.10988        42.04020         1.42347
O         32.73103        58.86603        -2.07937
O         36.28258        51.37511         2.12642
O         51.91944        54.70657        -1.53777
O         48.09855        50.63538        -0.74769
O         43.02125        40.62681        -1.68025
O         41.59463        42.76733        -2.22793
O         47.17445        52.69184         2.40064
O         44.73388        45.97320         1.85804
O         49.72737        52.20401         2.20842
H         49.01889        52.19818         2.89205
O         33.56798        59.50514         1.41340
H         34.30191        59.87374         1.94819
O         51.44981        59.34568         2.16293
H         50.69914        59.85777         2.53068
O         59.39323        59.52002         1.09467
H         60.23577        60.01112         0.98799
O         46.10650        55.98852        -1.16828
H         45.64365        56.73307        -1.61794
O         48.75176        56.44123        -1.70693
H         47.90604        55.96288        -1.90053
O         47.42314        58.79662        -1.57413
H         48.04801        58.13115        -1.97004
O         45.38459        36.31594        -2.03957
H         46.31200        36.59005        -2.19659
O         46.34049        46.60986        -1.40413
H         47.10351        47.13766        -1.72214
O         52.66922        57.02053         1.97349
H         52.15048        57.75568         2.38745
O         52.36087        58.68624        -1.32505
H         53.04238        58.12154        -1.74745
O         44.01526        43.80359        -1.81730
H         43.13511        43.44328        -2.18323
O         41.21041        39.14092         1.25435
H         41.95437        38.57880         1.56301
O         35.27038        56.97327        -1.61252
H         36.04255        57.42869        -2.00834
O         46.36745        39.48303         2.35077
H         45.86340        38.71586         2.70775
O         44.17054        59.46554         2.41506
H         43.42628        59.95875         2.82049
O         43.77952        34.70524         0.82952
H         42.95688        34.17870         0.90551
O         48.91126        35.18519        -0.19299
H         48.96286        34.22119        -0.03769
O         59.35074        56.72866         1.47252
H         59.41416        57.70969         1.59603
O         38.80306        60.93698         2.32135
H         37.98326        60.46180         2.57562
O         46.77096        59.20024         2.00777
H         45.96112        59.39663         2.53731
O         39.02877        51.22133        -0.92885
H         39.13813        50.40421        -1.45974
O         53.92770        60.91837         2.15421
H         54.78183        60.52627         2.43534
O         46.62668        55.52130         2.45556
H         46.76444        54.68438         2.95630
O         38.91327        51.87579         2.68765
H         37.99407        51.57214         2.89264
O         54.92899        45.81116        -0.33758
H         54.65073        45.95774        -1.26461
O         49.61384        52.60741        -1.41725
H         50.21496        53.10130        -2.01789
O         41.37327        47.73506         2.57386
H         42.15839        47.21826         2.85675
O         44.82824        58.77192        -1.13291
H         45.69458        58.89238        -1.60275
O         33.98384        56.81700         1.80010
H         33.13457        56.47775         2.15218
H         29.51887        56.63398        -1.04185
H         28.28716        58.79718        -1.38210
H         30.41449        62.55346        -1.09931
H         28.32444        61.26656        -1.42018
H         31.88853        52.37603        -0.17469
H         30.68736        54.51463        -0.51099
H         32.93129        62.58835        -0.93550
H         34.34063        48.10021        -0.11033
H         33.08299        50.25915         0.00714
H         35.41358        62.55567        -0.61066
H         36.83133        43.92616        -0.47607
H         35.59425        45.99750        -0.19330
H         37.75125        62.58260         0.13662
H         39.20850        39.69856        -0.47911
H         38.03217        41.81183        -0.74151
H         40.23135        62.57756         0.34419
H         41.89658        35.41476        -1.41145
H         40.63335        37.46700        -1.24115
H         42.66234        62.54736         0.03563
H         45.42294        32.18147        -1.89630
H         43.21229        33.29613        -1.79161
H         45.13242        62.57518        -0.02017
H         47.37385        33.11528        -0.64962
H         47.61339        35.37898         1.43240
H         47.63822        62.60111        -0.01328
H         49.76080        37.37663        -0.06776
H         50.96824        39.49414        -0.08279
H         50.10922        62.60217        -0.01729
H         52.26199        41.62671         0.07224
H         53.53675        43.76963         0.24499
H         52.60663        62.56109         0.01914
H         54.31086        46.22116         1.57462
H         56.03087        48.05144         0.16695
H         55.07412        62.57597        -0.03526
H         57.26677        50.21229        -0.06221
H         58.48790        52.35161        -0.18480
H         57.37044        62.48130        -0.92971
H         59.71522        54.46155        -0.10083
H         60.55386        56.52959        -1.38744
H         59.65795        62.40461        -1.77982
H         61.58440        58.58010        -2.30465
H         61.57567        61.04590        -2.56982
