         252
 CSIRO Nanostructure Databank - Neutral Graphene Oxide Data Set
C         30.10818        31.95855        -0.33490
C         30.25305        33.09695         0.19405
C         30.70692        35.93193         1.63137
C         30.67041        37.14037         1.89562
C         30.90710        40.33861         2.23173
C         30.79075        41.53996         2.67528
C         32.47014        29.38524        -1.67249
C         31.39802        29.83858        -1.24093
C         32.25149        31.37571         0.33174
C         31.09744        30.95046        -0.39034
C         32.37832        32.65223         0.88787
C         31.40998        33.66907         0.77666
C         32.96974        35.66024         1.06027
C         31.71378        35.03079         1.15532
C         33.05669        37.13363         1.36097
C         31.87884        37.97811         1.88234
C         32.89206        40.14219         1.03800
C         31.82239        39.44965         1.68707
C         32.89440        41.52556         0.77208
C         31.29458        42.59716         1.90984
C         33.05324        44.19360         1.60745
C         32.05856        43.76153         2.22925
C         35.83452        27.38782        -2.22565
C         35.72223        28.79728        -2.22634
C         33.83851        29.82417        -1.73519
C         35.46877        31.46293        -0.66839
C         34.24358        30.64894        -0.69981
C         35.60785        32.84871         0.08278
C         34.38975        33.63906         0.56127
C         35.35396        35.84562         0.17747
C         34.19830        35.01652         0.52707
C         35.40871        37.19633         0.41339
C         34.13230        37.90055         0.65917
C         35.38245        40.12258         0.47879
C         34.09170        39.38622         0.57462
C         35.34142        41.55480         0.53217
C         34.13748        42.25451         0.67779
C         35.30070        44.42206         0.47006
C         34.20079        43.72195         0.89427
C         35.63541        45.79184         0.44510
C         37.89059        27.34458        -0.92537
C         36.79052        26.82455        -1.61531
C         37.85506        28.76610        -0.94631
C         36.73059        29.46566        -1.50144
C         37.94216        31.59855        -1.36558
C         36.62786        30.89616        -1.16796
C         37.84103        33.09585        -1.13944
C         36.57017        33.74772        -0.70165
C         37.86415        35.83171         0.07745
C         36.57066        35.28095        -0.52176
C         37.86294        37.29272         0.34128
C         36.65256        37.96816         0.37389
C         37.86167        40.17866         0.53657
C         36.58524        39.41876         0.46710
C         37.85401        41.59920         0.11820
C         36.62225        42.36434         0.52036
C         37.74102        44.40954        -0.48093
C         36.43079        43.64861        -0.27867
C         37.60729        45.89341        -0.91278
C         36.57707        46.49545         0.03526
C         40.27707        24.50078        -0.25979
C         39.30542        25.22475        -0.50903
C         40.13313        27.32318         0.21804
C         38.81481        26.57410        -0.02695
C         40.27343        28.79320        -0.15126
C         39.05409        29.53398        -0.57613
C         40.50229        31.53299        -0.97917
C         39.13434        30.88112        -0.79658
C         40.41314        33.07426        -1.00578
C         39.13612        33.86118        -1.08018
C         40.41270        35.99606        -0.33144
C         39.15422        35.18695        -0.34690
C         40.40362        37.28967         0.11211
C         39.18097        37.92259         0.75100
C         40.37997        40.19114         0.18088
C         39.16832        39.45524         0.62310
C         40.29171        41.57973        -0.13028
C         39.00388        42.28298        -0.19191
C         40.20573        44.44544        -0.84196
C         38.92750        43.72909        -0.53621
C         40.24756        45.94979        -0.90642
C         38.91306        46.65754        -0.93827
C         40.13084        48.70807        -0.35536
C         39.10195        48.04573        -0.48923
C         42.77253        24.57219         0.47903
C         41.40505        24.65308         0.59919
C         42.24294        27.53937         1.49861
C         41.12595        26.80444         1.18390
C         42.46136        28.89236         1.03186
C         41.44055        29.55889         0.35843
C         42.68756        31.66771         0.32463
C         41.55376        30.96455        -0.00654
C         42.86676        33.05146        -0.18223
C         41.68643        33.80741        -0.70515
C         42.87464        35.95984        -0.47397
C         41.68616        35.29479        -0.56748
C         42.87461        37.45682        -0.42913
C         41.70362        38.02967         0.38085
C         42.81068        40.24733        -0.14970
C         41.62235        39.52929         0.10366
C         42.75548        41.66159        -0.26860
C         41.48997        42.29468        -0.27136
C         42.59858        44.49141         0.14987
C         41.48371        43.74824        -0.55762
C         42.56561        46.00215         0.01819
C         41.50488        46.67503        -0.49862
C         42.69131        48.75877         0.03129
C         41.51966        48.25877        -0.74990
C         43.76475        25.30585         0.77232
C         45.14837        27.45300         0.89599
C         44.20495        26.49567         1.32969
C         45.08653        28.83680         1.45328
C         43.73862        29.58421         1.39280
C         45.14827        31.75941         1.13425
C         43.80156        31.06433         1.12122
C         45.30846        33.06793         0.37923
C         44.00524        33.89688         0.36022
C         45.36937        35.96458         0.10449
C         44.18255        35.19691        -0.45302
C         45.34668        37.42094        -0.00748
C         44.17334        38.09537        -0.05483
C         45.37440        40.31148        -0.62629
C         44.05561        39.49480        -0.57916
C         45.23219        41.73058        -0.11131
C         43.96301        42.46241        -0.35822
C         45.13650        44.62565        -0.09478
C         43.94322        43.85642        -0.18175
C         45.09376        45.99209         0.30726
C         43.79617        46.64978         0.70678
C         43.66877        48.09792         0.38055
C         46.79164        26.99964        -1.12207
C         46.01900        27.19439        -0.15327
C         47.57773        28.89361         1.65021
C         46.37169        29.60510         1.42349
C         47.68087        31.70310         1.20548
C         46.42430        31.00063         1.27423
C         47.74736        33.12191         1.01449
C         46.43781        33.88158         1.03550
C         47.75135        36.01262         0.79125
C         46.49217        35.29069         0.49793
C         47.77028        37.48249         0.59452
C         46.66183        38.12968        -0.20876
C         47.76120        40.32446         0.17959
C         46.61129        39.63297        -0.04178
C         47.84928        41.82708         0.35245
C         46.48315        42.50706         0.12715
C         47.75331        44.68171        -0.13857
C         46.44103        43.92027        -0.45836
C         47.39124        45.91639         0.25612
C         46.33691        46.65216         0.42451
C         50.09431        28.94148         1.75314
C         48.81743        29.56218         1.59234
C         50.18393        31.64610         1.26387
C         48.91011        30.97456         1.34678
C         50.21514        33.06453         1.02292
C         48.97714        33.80357         0.95158
C         50.21801        35.89558         0.44381
C         49.03012        35.24380         0.75765
C         50.17343        37.30854        -0.16061
C         49.09850        38.16134         0.46493
C         50.23849        40.29041        -0.39181
C         49.08467        39.63650         0.27837
C         50.15165        41.69584        -0.72056
C         49.01367        42.46143        -0.36679
C         50.07312        44.43700        -1.24265
C         49.09263        43.99360        -0.17068
C         51.19828        29.52632         1.66950
C         52.59668        31.67788         1.26259
C         51.43247        30.89596         1.40781
C         52.54090        32.91197         1.01856
C         51.45038        33.78534         0.86072
C         52.58643        35.95362         0.15403
C         51.47141        35.16882         0.50848
C         52.51410        37.20258        -0.11173
C         51.49370        38.11555        -0.22401
C         52.47079        40.31664        -1.07313
C         51.42749        39.50848        -0.54628
C         52.43155        41.52216        -1.43948
C         51.32509        42.37586        -1.32171
C         51.11350        43.76917        -1.45666
O         43.24390        26.92662         2.30527
O         41.08772        43.96589        -1.94015
O         38.57067        40.04153         1.85251
O         44.30491        29.12861         2.64435
O         39.64327        46.44706        -2.16750
O         45.65770        42.12307         1.26171
O         33.41054        30.57671         0.46670
O         31.66065        42.18699         0.56125
O         49.44514        39.01305         1.57845
O         33.71228        38.55877        -0.59868
O         38.15913        31.58945        -2.88925
O         44.26236        31.83235         2.29138
O         40.71306        27.72298        -1.06354
O         47.52743        36.96831         1.92713
O         34.67165        29.51213        -2.81161
O         36.78918        33.49085        -2.10811
O         42.69709        33.22869        -1.62401
O         33.61180        32.92870         1.50897
O         42.72473        37.97677        -1.83552
O         39.92830        33.67309        -2.27255
O         38.59413        34.98793         1.01150
O         32.90834        37.50967         2.77975
O         45.74114        40.45676        -2.03199
O         40.99595        25.47600         1.70701
O         35.93806        43.32670        -1.58331
H         36.01820        44.13641        -2.14066
O         47.00751        37.89802        -1.60699
H         46.57202        38.60449        -2.14142
O         44.55941        34.91237        -1.82782
H         44.58630        35.75980        -2.32097
O         40.96390        31.12190        -2.29520
H         41.65551        31.77374        -2.56729
O         49.76267        37.11511        -1.53768
H         50.41399        36.52856        -1.97688
O         43.63356        46.45880         2.12632
H         44.43635        46.80598         2.57054
O         37.04784        45.88851        -2.22649
H         37.71224        46.26538        -2.84658
O         36.52572        35.90643        -1.83233
H         36.64229        35.19755        -2.51240
O         45.69256        32.68486        -0.94772
H         45.43893        33.40054        -1.58189
O         48.14504        42.05938         1.76793
H         47.31171        41.87101         2.26313
O         36.32152        32.52813         1.30740
H         35.66014        32.19666         1.95450
O         38.17143        26.38079         1.22865
H         37.31722        25.92186         1.08817
O         42.32544        44.18656         1.54655
H         42.86400        44.80268         2.10258
O         49.71588        44.21546         1.10292
H         49.33882        43.54947         1.72965
O         46.45762        43.68151        -1.89089
H         46.41047        44.54697        -2.34972
O         41.69399        48.45758        -2.11823
H         41.66774        49.41462        -2.31917
O         43.69968        39.10402        -1.99278
H         44.95453        40.76344        -2.53357
O         47.55767        27.59013         1.97118
H         48.47796        27.25436         2.01891
O         36.89303        42.77156         1.89381
H         37.26614        41.99996         2.37358
O         46.11148        34.02734         2.44681
H         46.60263        34.80046         2.79991
O         38.52892        30.27501        -3.31513
H         39.52464        30.30949        -3.27625
O         43.63928        34.34423         1.67204
H         43.86230        33.63303         2.32216
O         39.33229        37.62971         2.17923
H         38.84033        38.34179         2.65634
O         42.01774        37.84477         1.77727
H         41.16289        37.75485         2.27071
