         576
 CSIRO Nanostructure Databank - Neutral Graphene Oxide Data Set
C          6.53225        19.13172         2.81289
C          6.51459        20.54795         2.69708
C          5.24392        21.27624         2.81530
C          6.25795        23.20642         1.63868
C          5.10367        22.53081         2.34661
C          6.19115        24.70680         1.59078
C          8.77915        14.83257         1.90317
C          8.80090        16.24464         1.98329
C          7.66030        16.97584         2.42122
C          8.97458        19.07717         2.34185
C          7.68558        18.37632         2.53422
C          8.96720        20.60399         2.26570
C          7.66402        21.26295         2.36162
C          8.75702        23.44656         1.61251
C          7.57765        22.76241         2.27034
C          8.64582        24.76394         1.30393
C          7.34363        25.44819         1.37226
C          8.44367        27.64509         0.95150
C          7.29611        26.85947         1.23501
C          8.38843        29.02828         0.90730
C         11.11184        10.51401         1.27163
C         11.09421        11.92160         1.20134
C          9.93372        12.65564         1.56183
C         11.09943        14.73586         1.05718
C          9.91547        14.06159         1.50366
C         10.97905        16.20860         0.74206
C          9.96810        16.96601         1.54990
C         11.16757        19.11268         1.13999
C         10.07566        18.36207         1.66824
C         11.15892        20.54998         1.08295
C         10.07793        21.28244         1.56862
C         11.07272        23.41771         0.64727
C         10.12186        22.79098         1.65234
C         10.94169        24.74923         0.33543
C          9.91470        25.56185         1.09728
C         10.73891        27.66936         0.05107
C          9.71335        26.97923         0.61988
C         10.67819        29.17233        -0.14707
C          9.68581        29.77465         0.86280
C         10.94424        31.87517         0.87452
C          9.57782        31.27086         0.59835
C         10.98703        33.16995         1.31614
C         13.51311         6.18239         1.04614
C         13.62856         7.68644         1.11968
C         12.32071         8.40328         1.19276
C         13.47247        10.47618         0.48539
C         12.28658         9.77720         0.97680
C         13.47957        11.88638         0.42593
C         12.29080        12.61441         0.80270
C         13.57659        14.75239         0.52928
C         12.26046        14.02918         0.73539
C         13.33695        16.13663        -0.07238
C         12.31990        16.89644         0.70741
C         13.44988        19.05665        -0.04048
C         12.36796        18.39033         0.70194
C         13.42144        20.49239        -0.09695
C         12.27017        21.24957         0.42274
C         13.20339        23.26994        -0.68799
C         12.16568        22.60521         0.15468
C         13.08548        24.71238        -1.05409
C         11.87139        25.45678        -0.58717
C         13.02109        27.82564        -1.13656
C         11.84865        26.95676        -0.63632
C         13.19749        29.07800        -0.27892
C         12.06082        29.78140         0.08857
C         13.43725        31.64423         1.06811
C         12.12546        31.08064         0.67985
C         13.49218        33.05482         1.58029
C         12.22259        33.89532         1.76503
C         13.44948        35.94046         0.94573
C         12.28507        35.27417         1.14860
C         13.49306        37.34900         0.59901
C         15.81921         6.12036         0.25078
C         14.57675         5.45867         0.65459
C         15.79587         7.50286        -0.06974
C         14.47388         8.22412        -0.04524
C         15.72807        10.38304        -0.48241
C         14.60162         9.73563         0.02153
C         15.78773        11.82251        -0.53068
C         14.65091        12.56510        -0.07377
C         15.73964        14.65371        -0.76087
C         14.64512        13.98154        -0.21333
C         15.62752        16.06733        -1.30518
C         14.43663        16.84607        -0.75604
C         15.64900        18.96258        -1.15424
C         14.50511        18.32151        -0.62573
C         15.56537        20.41241        -1.34175
C         14.47579        21.15535        -0.70719
C         15.69058        23.31517        -1.30805
C         14.56984        22.64662        -0.55984
C         15.62518        24.77028        -1.57950
C         14.30487        25.49848        -1.49671
C         15.66852        27.70226        -1.30212
C         14.32327        27.01979        -1.41079
C         15.67477        29.18554        -0.88175
C         14.58134        29.53590         0.15427
C         15.87950        31.69330         0.54896
C         14.67943        31.01626         0.53625
C         16.08669        32.98138         1.33996
C         14.79368        33.80358         1.50144
C         15.98567        35.91546         0.62196
C         14.75009        35.27193         1.22419
C         15.95360        37.42678         0.71462
C         14.66023        38.05575         0.58141
C         18.23596         6.08005        -0.11132
C         17.02392         5.42017         0.21625
C         18.17974         7.44659        -0.53300
C         16.96973         8.15604        -0.48341
C         18.13341        10.27744        -1.42618
C         16.89336         9.57463        -0.93961
C         18.11678        11.79757        -1.63320
C         16.94153        12.52145        -0.99027
C         18.10189        14.69534        -1.48505
C         16.93277        13.93720        -1.08023
C         18.11066        16.10539        -1.54917
C         16.91914        16.84616        -1.35237
C         18.04148        19.01427        -1.82036
C         16.85372        18.26474        -1.49976
C         18.08807        20.40719        -1.76838
C         16.84032        21.16944        -1.70427
C         18.12322        23.32767        -1.70460
C         16.86471        22.63683        -1.53034
C         18.11651        24.73745        -1.59051
C         16.90951        25.50481        -1.50692
C         18.18694        27.58219        -1.26323
C         16.92846        26.88973        -1.27579
C         18.26345        28.96339        -0.73605
C         17.00889        29.65738        -0.33041
C         18.29900        31.76604        -0.07476
C         17.09119        31.09012         0.01563
C         18.33754        33.19656         0.23372
C         17.27224        33.80628         0.82726
C         18.49586        36.05381         0.79681
C         17.25707        35.28218         1.21196
C         18.41831        37.53364         0.68686
C         17.11814        38.15475         0.73819
C         20.71557         6.06547        -0.04075
C         19.47344         5.38780         0.01673
C         20.64993         7.54393        -0.25766
C         19.44210         8.11564        -0.92931
C         20.72305        10.37076        -1.12306
C         19.46917         9.56881        -1.31457
C         20.73064        11.75219        -1.39514
C         19.43567        12.49686        -1.33026
C         20.63146        14.62559        -2.09370
C         19.40471        13.98145        -1.51622
C         20.66663        16.15847        -2.27316
C         19.23237        16.76877        -2.33510
C         20.50311        18.97800        -1.61231
C         19.30545        18.33261        -2.30759
C         20.56623        20.37093        -1.64256
C         19.33458        21.14029        -1.81586
C         20.62900        23.25341        -1.96995
C         19.33229        22.54757        -1.80920
C         20.69889        24.70370        -1.61638
C         19.39036        25.44820        -1.43347
C         20.60927        27.64182        -1.79842
C         19.37389        26.91048        -1.47863
C         20.63607        29.12491        -1.56541
C         19.48510        29.76060        -0.90958
C         20.78849        31.81639        -0.58823
C         19.50991        31.10885        -0.57491
C         20.81694        33.24976        -0.34894
C         19.48497        33.97252        -0.39542
C         20.77704        36.19117        -0.41620
C         19.64567        35.36874         0.16020
C         20.83304        37.58263         0.19288
C         19.57513        38.24457         0.45861
C         23.22951         6.16898        -0.04133
C         21.92983         5.44545         0.19287
C         23.14471         7.66260         0.24572
C         21.88710         8.36217        -0.19556
C         23.13944        10.47309        -0.67485
C         21.93695         9.74382        -0.74433
C         23.16686        11.84008        -1.06102
C         21.94757        12.47918        -1.40133
C         23.20061        14.67835        -1.85662
C         21.92461        13.87391        -1.93853
C         23.06046        16.12775        -1.44711
C         21.63442        16.69101        -1.17756
C         22.92316        18.98269        -0.75613
C         21.62690        18.21780        -1.06340
C         22.99176        20.40751        -1.11010
C         21.84320        21.05441        -1.49707
C         23.17180        23.22811        -1.58863
C         21.92556        22.47989        -1.88360
C         23.23179        24.67741        -2.03594
C         21.93921        25.42979        -1.82249
C         23.19231        27.65343        -1.75940
C         21.93107        26.89013        -1.91439
C         23.24462        29.02140        -1.58850
C         21.99084        29.82754        -1.47804
C         23.28299        31.75090        -0.48060
C         21.98051        31.13928        -0.82249
C         23.33244        33.24114        -0.12369
C         22.00274        33.95658        -0.31293
C         23.25872        36.06421        -0.08225
C         22.05604        35.40103        -0.24811
C         23.29576        37.49970         0.21305
C         22.03786        38.21483         0.33522
C         25.70032         6.30193         0.84061
C         24.45599         5.50834         0.56451
C         25.72445         7.82971         0.80752
C         24.38914         8.46234         0.37251
C         25.62364        10.60879         0.01273
C         24.45412         9.73292        -0.46746
C         25.62159        11.92498        -0.74720
C         24.45964        12.54283        -1.12869
C         25.68677        14.77802        -1.41590
C         24.51759        13.88266        -1.86219
C         25.56451        16.19900        -0.98262
C         24.24112        16.88251        -0.93417
C         25.48961        19.01100        -0.62705
C         24.20086        18.22285        -0.71521
C         25.33077        20.45868        -0.15965
C         24.36588        21.06953        -1.21265
C         25.52004        23.33486        -0.84831
C         24.30257        22.58924        -1.16546
C         25.61201        24.70273        -1.06417
C         24.33322        25.46947        -1.31193
C         25.76188        27.57003        -1.99983
C         24.43751        26.86499        -1.91303
C         25.74883        29.03759        -1.69563
C         24.52531        29.69101        -1.48687
C         25.79009        31.85813        -1.00679
C         24.54171        31.06558        -0.92505
C         25.77721        33.24683        -0.85824
C         24.44544        33.98452        -0.90080
C         25.70341        36.01136        -0.08752
C         24.52022        35.37749        -0.31040
C         25.71639        37.26173         0.74988
C         24.48837        38.10172         0.51434
C         28.17910         6.29227         0.53851
C         27.00486         5.62329         0.80630
C         28.17788         7.71397         0.19759
C         26.94539         8.43905         0.15839
C         28.15965        10.48238        -0.31007
C         26.92103         9.80392        -0.12304
C         28.17274        11.88942        -0.47145
C         26.93765        12.57627        -0.91844
C         28.10338        14.82618        -0.57581
C         26.96706        14.06338        -1.12190
C         28.00261        16.15475        -0.24734
C         26.64039        16.78763        -0.08097
C         27.80026        19.01122         0.54019
C         26.67488        18.27808        -0.12775
C         27.85052        20.49912         0.20332
C         26.68370        21.15783        -0.10114
C         27.95086        23.40515        -0.00478
C         26.63657        22.63467        -0.18673
C         28.02495        24.75626        -0.58172
C         26.86945        25.41948        -0.96410
C         28.27394        27.52325        -1.56622
C         27.02157        26.67926        -1.82967
C         28.26397        29.03087        -1.63645
C         26.98252        29.76121        -1.51992
C         28.25553        31.86667        -0.98624
C         27.01252        31.13349        -1.17902
C         28.23016        33.30286        -0.82915
C         27.00285        33.97931        -0.81930
C         28.22457        36.26307        -0.57753
C         26.95886        35.45667        -0.64252
C         28.20157        37.52551         0.26122
C         27.02427        37.99677         0.75204
C         30.64784         6.27125         0.48504
C         29.44446         5.61179         0.63926
C         30.66840         7.67975         0.13949
C         29.40256         8.37677        -0.00805
C         30.62312        10.52011        -0.27370
C         29.40246         9.79224        -0.21153
C         30.62836        11.92459        -0.29813
C         29.37215        12.59338        -0.40110
C         30.56363        14.78658         0.06993
C         29.30644        14.05128        -0.21715
C         30.49932        16.26990        -0.05978
C         29.17643        16.94675         0.09424
C         30.32334        19.05412         0.79307
C         29.11874        18.29494         0.35122
C         30.35882        20.52508         0.67210
C         29.13234        21.21748         0.33817
C         30.42518        23.34188         0.40299
C         29.17583        22.60028         0.18001
C         30.50100        24.77687        -0.04954
C         29.38505        25.34917        -0.91374
C         30.71425        27.51978        -0.75738
C         29.34405        26.87787        -0.69540
C         30.76360        28.99505        -0.92223
C         29.53043        29.76219        -1.27027
C         30.71992        31.89063        -0.71755
C         29.46913        31.19102        -0.90887
C         30.69719        33.33306        -0.81522
C         29.48864        34.02592        -0.78122
C         30.67492        36.15026        -0.93204
C         29.49523        35.48545        -0.75470
C         30.63691        38.09312         0.14572
C         29.42258        38.18416         0.75179
C         33.09210         6.27486         0.60917
C         31.91410         5.60141         0.68712
C         33.14036         7.68606         0.26755
C         31.87836         8.34356        -0.01890
C         33.19549        10.54072        -0.38562
C         31.89103         9.77480        -0.37982
C         33.13307        11.99303        -0.09031
C         31.87858        12.67497        -0.16388
C         33.04957        14.80085         0.29466
C         31.85978        14.07180         0.01554
C         32.98351        16.20156         0.54729
C         31.74609        16.97250         0.32138
C         32.89566        19.07886         1.06587
C         31.63653        18.33671         0.90001
C         32.83934        20.50527         1.13089
C         31.60362        21.20255         0.82461
C         32.91872        23.31289         0.64439
C         31.68504        22.62211         0.64579
C         32.97974        24.72852         0.29086
C         31.83229        25.41793        -0.10474
C         33.14880        27.55181        -0.27693
C         31.85292        26.83262        -0.40746
C         33.15263        29.04823        -0.26135
C         31.81791        29.73254        -0.12066
C         33.26250        31.84609        -0.53773
C         31.89568        31.19775        -0.44733
C         33.19135        33.33180        -0.33473
C         32.00414        34.02620        -0.83476
C         33.13284        36.23168        -0.14137
C         32.01645        35.54403        -0.84530
C         33.04717        37.56434         0.45368
C         31.96257        38.36246         0.68103
C         34.33297         8.37172         0.28193
C         35.54943        10.56668         0.55364
C         34.51940         9.78619        -0.21768
C         35.50899        11.94339         0.65107
C         34.29574        12.67896         0.30636
C         35.48794        14.81602         0.77355
C         34.28960        14.09761         0.46809
C         35.39352        16.23561         0.88256
C         34.13110        16.92163         0.88908
C         35.29365        19.00866         1.64396
C         34.08427        18.34319         1.13581
C         35.23392        20.52356         1.82729
C         34.04043        21.23741         1.32991
C         35.40105        23.29245         1.09455
C         34.12252        22.61719         1.01893
C         35.54644        24.72653         0.62908
C         34.23471        25.44810         0.43523
C         35.43179        27.58276         0.80659
C         34.29459        26.81622         0.29856
C         35.24449        28.97694         1.01412
C         34.28510        29.78366         0.35914
C         35.58590        31.93395         0.49984
C         34.36804        31.16875         0.25635
C         35.53414        33.33788         0.32820
C         34.33874        34.05126        -0.00164
C         34.26503        35.49193         0.13994
C         36.62782        12.68226         1.16061
C         37.88002        14.69857         1.72218
C         36.69181        14.07851         1.15852
C         38.29873        15.98519         1.40796
C         36.54708        17.05344         0.88865
C         37.83864        18.98747         1.67281
C         36.60372        18.35286         1.42555
C         37.83705        20.45709         1.89419
C         36.54285        21.24136         1.90560
C         37.83970        23.35597         1.56588
C         36.56131        22.64998         1.48226
C         37.84622        24.76289         1.57586
C         36.52689        25.48628         1.54119
C         37.88278        27.67204         1.38224
C         36.62435        26.97034         1.23700
C         38.06818        29.07415         1.09146
C         37.04689        30.02302         1.22316
C         36.86809        31.32831         0.72029
C         39.22182        16.89551         2.00581
C         40.25934        19.10706         2.20056
C         39.09183        18.29466         1.87862
C         40.30928        20.46096         2.00226
C         39.09495        21.16093         1.43088
C         40.27277        23.35459         1.87170
C         39.05789        22.64832         1.68188
C         40.27096        24.75710         1.86793
C         39.06269        25.48087         1.69159
C         39.05160        26.90493         1.60103
C         41.50300        21.24592         2.22042
C         41.49693        22.60368         2.11159
O         19.62683         8.50182        -2.32570
O         21.17309        29.85774        -2.70316
O         30.60603        29.52238        -2.26449
O         27.28757        25.98151        -3.03675
O         14.12506        14.99367         1.79903
O         25.04471        27.13719        -3.19534
O         32.57510        10.14043        -1.65476
O         24.04159        30.96480         0.51010
O         19.52918        13.36779        -0.15915
O         35.96342        29.56138         2.03864
O         37.29666        20.96481         3.14160
O         21.97484        18.63511         0.31094
O         14.80329        25.04961        -2.78480
O         27.40817        36.28121        -1.79769
O         14.87435        34.78122         2.58861
O         29.72230        14.36242         1.19465
O         23.30874        15.74070        -2.83791
O         37.67678        16.54111         0.25832
O         35.04088        19.62812         2.95140
O         17.71001        28.85474         0.65952
O         21.20886        13.92853        -3.23226
O         20.15536        24.94616        -0.24182
O          9.38557        19.88345         3.49184
O         11.24997        26.15730        -1.72857
O         20.93575         8.30858         0.95613
O         24.91487        20.75142        -2.49688
O         25.97672        15.89122        -2.35097
O         12.84081        17.51551         1.87572
O         30.13604        24.49982         1.33777
O         13.52624        31.94999         2.53796
O         13.21685        16.34849        -1.49188
O         30.78330        18.47944         2.09674
O         23.49862         8.30450         1.51474
O         21.12585        27.29599        -3.11668
O         30.65988        37.52736        -1.14425
O         33.46988        28.36269        -1.49064
O         14.99020        27.55555        -2.59278
O         12.74510        23.64655        -2.00766
O         27.25065        13.16188        -2.24251
O         26.99374        23.26312         1.09867
O         17.21027         9.66425        -2.38377
O         19.63133        35.52616         1.60369
O         28.57433        28.19977        -2.80291
O         25.89650         8.25254         2.19979
O         31.32441        16.87065        -1.10401
O         32.34114        34.79978        -2.06315
O         21.34480        22.86272        -3.18541
O         15.86307        20.80698        -2.73682
O         10.64636        23.08179         3.00909
H         11.46082        22.54774         3.13587
O         14.88378        28.76464         1.35371
H         14.67170        29.31190         2.14015
O          6.27984        22.72520         0.25964
H          5.46447        23.03746        -0.18500
O         17.22829        35.37410         2.65222
H         18.16009        35.27078         2.95136
O         15.44295        29.99046        -2.04983
H         14.93868        29.43106        -2.69097
O         21.20365        16.52393        -3.55087
H         21.31261        15.69305        -4.07213
O         26.20731        16.45922         1.28619
H         26.69384        17.06456         1.89731
O         26.04919        19.15645        -1.96838
H         25.72601        18.44390        -2.56776
O         10.50201        16.25656        -0.64876
H          9.65143        15.77003        -0.68900
O         29.68892        25.06039        -2.28330
H         28.89208        25.37188        -2.82245
O         24.79981         5.80168         1.92122
H         25.15027         7.83759         2.69549
O         33.68658        31.68603        -1.93951
H         33.03423        32.15230        -2.50648
O         18.80022        16.39785        -3.67786
H         17.92888        16.81732        -3.84532
O         39.13145        20.98533        -0.02058
H         39.95596        21.39871        -0.35277
O          7.57278        23.23643         3.64766
H          8.44555        23.01296         4.03867
O         14.90994        22.90045         0.86053
H         15.76330        22.45897         1.05955
O         24.02878        34.04879        -2.28471
H         24.71389        34.53547        -2.78974
O         12.05558        34.09929         3.19935
H         12.42533        33.29962         3.63739
O         19.10854        34.13248        -1.79176
H         19.18354        33.25908        -2.23074
O         25.58898        36.80020         2.15344
H         24.74998        36.29319         2.21767
O         23.64647        33.36152         1.28115
H         23.97265        32.47856         1.57968
O         24.74515        13.53639        -3.24168
H         24.87659        14.38142        -3.72660
O         35.96066        25.43021         2.88462
H         36.60397        25.82899         3.50738
O         15.37193        15.86504        -2.73940
H         14.39328        15.78218        -2.83926
O          8.58648        31.85802         1.43926
H          8.80814        31.60759         2.36116
O         20.54852        36.37255        -1.83672
H         21.36636        36.73858        -2.23275
O         21.18105        16.15116         0.07449
H         21.43570        16.79008         0.78107
O         19.44363        18.74740        -3.69432
H         20.09151        18.12665        -4.10729
O         13.75875         7.90450        -1.26762
H         14.32380         8.16143        -2.02643
O         12.57839        28.32458        -2.43224
H         12.33891        27.53541        -2.97106
O         27.51180        18.92917         2.00083
H         28.35857        19.09014         2.47593
O         25.45357        10.92820         1.40970
H         25.57741        10.08845         1.92625
O         10.23044        29.48121        -1.47893
H         10.92358        29.13779        -2.09867
O         17.96894        12.00792        -3.06561
H         17.39422        11.28176        -3.40392
O         23.82392        25.74931         0.03178
H         23.86805        24.92638         0.56437
O         36.17114        24.69229        -0.68581
H         35.52291        24.33701        -1.32918
O         23.51600        24.66382        -3.44918
H         22.86299        24.06481        -3.87947
O         14.36991         8.02371         2.33294
H         13.85090         7.71641         3.10506
O         10.25131        29.64090         2.20089
H         10.29098        28.68479         2.42344
O         10.48913        25.77658         2.43615
H         10.56540        24.89058         2.87706
O         23.48678         6.08905        -1.48562
H         22.66974         6.33666        -1.96836
O         24.81022         9.23296        -1.78983
H         24.90217        10.00061        -2.39500
O         35.10288         9.63662        -1.55477
H         34.33752         9.56219        -2.17352
O         28.86792        27.11564         0.66399
H         29.27018        26.44178         1.25948
O         31.48414        29.59948         1.29781
H         30.63400        30.06021         1.46037
O         15.94382        35.56870        -0.78913
H         16.70158        35.99240        -1.24554
O         24.72335        20.52303         1.13323
H         25.37554        20.21169         1.79798
O         16.45219        32.55116         2.67642
H         16.41733        33.36443         3.23300
H          5.58735        18.60480         3.01397
H          4.39248        20.74992         3.27302
H          4.13372        23.04830         2.40874
H          5.21395        25.21416         1.62715
H          7.87530        14.30034         2.23559
H          6.72717        16.43389         2.63696
H          6.33112        27.37096         1.36984
H          7.45477        29.56569         1.13151
H         10.21707         9.97632         1.61902
H          9.03933        12.11109         1.89819
H          9.27707        31.45055        -0.46375
H         10.02918        33.69341         1.46456
H         12.58464         5.69446         1.38053
H         11.41965         7.88237         1.55372
H         11.32675        35.79415         0.99441
H         12.53548        37.87025         0.45214
H         14.55025         4.35861         0.65776
H         14.63316        39.14606         0.43254
H         17.05029         4.35866         0.50262
H         17.06988        39.25475         0.71340
H         19.45847         4.31629         0.26393
H         19.54878        39.34568         0.47138
H         21.95692         4.36133         0.37982
H         22.07225        39.25400         0.69815
H         24.58274         4.43720         0.28189
H         24.51083        39.16348         0.80326
H         27.03116         4.55246         1.05713
H         27.05184        38.89457         1.39018
H         29.44066         4.54340         0.90328
H         29.34671        38.69944         1.72130
H         34.04304         5.75529         0.79722
H         31.90218         4.53068         0.93876
H         33.98839        37.88632         0.93004
H         32.09338        39.23588         1.33880
H         35.25407         7.81527         0.51632
H         36.46222        10.03281         0.86019
H         36.45258        33.91857         0.50175
H         35.11565        35.99304         0.62856
H         37.50950        12.11216         1.49062
H         38.46001        14.10471         2.44483
H         39.06018        29.39261         0.73952
H         37.75419        31.91134         0.42835
H         40.08999        16.50347         2.55824
H         41.16233        18.58093         2.54901
H         41.21663        25.30509         1.99114
H         40.01622        27.43162         1.65470
H         42.43171        20.71850         2.48598
H         42.42418        23.17206         2.27540
