         598
 CSIRO Nanostructure Databank - Neutral Graphene Oxide Data Set
C         23.36067        69.60978        -1.82600
C         23.19490        70.93218        -1.18423
C         21.91444        71.64104        -1.15786
C         22.99533        73.75298        -0.51122
C         21.84849        72.96327        -0.77636
C         26.14020        65.68517        -2.74488
C         26.01606        67.09204        -2.61509
C         24.77061        67.69877        -2.45155
C         25.79379        69.98267        -2.14943
C         24.59897        69.08586        -2.13191
C         25.70435        71.33915        -1.54562
C         24.42118        71.77714        -0.92467
C         25.47273        73.97343        -0.51388
C         24.29258        73.22816        -0.65901
C         28.66456        61.49241        -2.53445
C         28.66828        62.87970        -2.67882
C         27.46145        63.61881        -2.82625
C         28.62327        65.84187        -2.72836
C         27.38182        65.02434        -2.79782
C         28.54276        67.25078        -2.32357
C         27.25591        67.91610        -2.58469
C         28.32728        70.06762        -1.68896
C         27.16364        69.39304        -2.30605
C         28.18706        71.41279        -1.18946
C         26.92611        72.04677        -1.11411
C         27.93854        74.10019        -0.27788
C         26.77862        73.38136        -0.62855
C         30.95623        57.12373        -1.67280
C         31.13870        58.55985        -2.06833
C         29.84716        59.33416        -2.26400
C         31.06278        61.41205        -1.80521
C         29.82798        60.71024        -2.18730
C         31.12801        62.88233        -2.00835
C         29.95393        63.61793        -2.55585
C         30.99851        65.86343        -1.81150
C         29.94729        65.12057        -2.50548
C         30.90245        67.24880        -1.63272
C         29.66375        67.96668        -1.92047
C         30.70039        70.07394        -1.05034
C         29.55836        69.38635        -1.57793
C         30.61009        71.47461        -0.69740
C         29.34159        72.12503        -0.74032
C         30.37403        74.20703         0.08535
C         29.21622        73.49057        -0.31610
C         32.89449        52.81072        -0.07612
C         32.82015        54.26948        -0.01459
C         31.89274        55.01724        -0.85452
C         33.18619        57.12549        -0.60269
C         31.97557        56.42617        -1.00545
C         33.31327        58.52484        -0.74341
C         32.02368        59.27466        -1.03195
C         33.47796        61.41691        -1.22401
C         32.17857        60.72800        -1.42121
C         33.39436        62.87929        -0.88144
C         32.13370        63.62243        -1.17707
C         33.41504        65.83218        -1.10829
C         32.05369        65.14478        -0.99825
C         33.33899        67.31735        -0.94598
C         32.01662        67.98449        -1.08297
C         33.12769        70.09532        -0.40314
C         31.91656        69.35663        -0.84403
C         33.04677        71.56231        -0.13193
C         31.73274        72.21050        -0.24249
C         32.81714        74.30779         0.52469
C         31.62846        73.58136         0.13604
C         35.36170        48.59202        -0.10385
C         35.29984        49.96742         0.21978
C         34.10647        50.68463         0.04053
C         35.18377        52.72211         0.94167
C         34.00916        52.07874         0.30444
C         35.27166        54.23741         0.95617
C         34.09669        55.01160         0.45065
C         35.68356        56.98527         0.08835
C         34.35916        56.32648        -0.19091
C         35.73624        58.47074        -0.04208
C         34.50968        59.18948        -0.45492
C         35.60419        61.39919         0.22511
C         34.64448        60.65038        -0.67055
C         35.81226        62.86597        -0.04325
C         34.67132        63.61724        -0.63889
C         35.66667        65.81518         0.20509
C         34.65610        65.12061        -0.64037
C         35.55099        67.17480         0.45431
C         34.47502        67.97107        -0.19112
C         35.23744        70.05483         1.10877
C         34.17589        69.32584         0.34565
C         35.18327        71.53574         1.15953
C         34.10762        72.22157         0.67489
C         35.24691        74.38223         1.05026
C         34.02636        73.67835         0.77914
C         37.76493        44.27773        -0.55767
C         37.79825        45.77106        -0.32363
C         36.61561        46.48100        -0.35919
C         37.77540        48.53455         0.35610
C         36.56546        47.87166        -0.03571
C         37.75073        49.90514         0.75680
C         36.50212        50.63796         0.70563
C         37.59923        52.67835         1.64471
C         36.45058        51.98000         1.04103
C         37.69756        54.15798         1.56854
C         36.60317        54.89510         1.07044
C         37.85712        56.96133         1.41200
C         36.72788        56.28573         0.88570
C         37.74658        58.43508         1.62707
C         36.79690        59.19213         0.74253
C         37.84422        61.37765         1.48853
C         36.61825        60.65357         1.02244
C         37.88382        62.86661         1.39098
C         36.77851        63.64288         0.77291
C         37.57894        65.70853         1.89410
C         36.69111        65.00838         0.87371
C         37.66989        67.19431         1.68544
C         36.56338        67.91140         1.22610
C         37.61166        70.10727         1.84553
C         36.49363        69.34016         1.39111
C         37.59332        71.49974         1.87480
C         36.29328        72.26875         1.87303
C         37.67417        74.35153         1.40368
C         36.41094        73.70759         1.40582
C         40.44463        40.34005        -2.28987
C         40.40722        41.81632        -1.92364
C         39.13911        42.43649        -1.51322
C         40.31055        44.36539        -0.53809
C         39.09780        43.68731        -0.96051
C         40.26260        45.72429        -0.01091
C         39.02702        46.42988         0.01258
C         40.21837        48.50814         0.65276
C         39.00262        47.82039         0.35676
C         40.20966        49.89981         0.98427
C         38.94889        50.55188         1.11961
C         40.18508        52.65652         1.79893
C         38.92845        51.90507         1.67989
C         40.09710        54.03666         2.30863
C         38.88051        54.82461         1.96840
C         40.04421        56.91195         2.78636
C         38.91860        56.24135         1.99086
C         40.06832        58.45453         2.75921
C         38.78444        59.17903         2.42688
C         40.15537        61.40037         2.37834
C         38.78920        60.73064         2.53976
C         40.16874        62.81052         2.32195
C         38.85014        63.55558         2.35132
C         40.11797        65.70200         2.15423
C         38.92087        65.02777         2.05657
C         40.13648        67.15380         2.21139
C         38.83245        67.86489         2.27728
C         40.10860        70.08853         2.43238
C         38.80039        69.36758         2.36119
C         40.06261        71.48578         1.90384
C         38.82564        72.28473         2.26884
C         40.11839        74.31111         1.43705
C         38.87590        73.68027         1.66189
C         43.23463        36.48879        -3.67340
C         43.15875        37.83869        -3.31614
C         41.93474        38.53836        -3.15756
C         42.98449        40.46442        -2.05669
C         41.84076        39.80477        -2.55062
C         42.91984        41.68435        -1.29731
C         41.66665        42.46932        -1.37154
C         42.67449        44.20803         0.17234
C         41.51612        43.68727        -0.57917
C         42.71092        45.66803         0.38484
C         41.47001        46.39378         0.31496
C         42.65702        48.51559         0.80495
C         41.45016        47.80049         0.61684
C         42.66374        49.91380         1.04183
C         41.42959        50.61569         1.19121
C         42.63736        52.78024         1.70239
C         41.40527        52.02533         1.56936
C         42.66415        54.11468         2.07424
C         41.43728        54.82707         2.47183
C         42.60298        57.03946         2.33139
C         41.40117        56.29690         2.43701
C         42.63264        58.47083         2.42771
C         41.36532        59.21156         2.62917
C         42.60626        61.36778         2.33641
C         41.36589        60.68052         2.38535
C         42.61614        62.79646         2.28134
C         41.38498        63.52439         2.26823
C         42.59115        65.67062         2.21890
C         41.37864        64.96946         2.23000
C         42.58921        67.12147         2.15556
C         41.33625        67.83675         2.22082
C         42.62171        70.01353         1.89575
C         41.38901        69.31542         2.33665
C         42.60915        71.39909         1.61172
C         41.33472        72.14792         1.52062
C         42.57934        74.24800         1.15840
C         41.35628        73.62479         1.41686
C         45.78139        33.77369        -4.19422
C         44.55491        34.45180        -4.16253
C         45.69446        36.45117        -3.32690
C         44.48312        35.79701        -3.74126
C         45.66429        37.80097        -2.89903
C         44.41608        38.55544        -3.05459
C         45.46927        40.32143        -1.54529
C         44.32145        39.92349        -2.35840
C         45.27190        41.39536        -0.57819
C         44.02090        42.17409        -0.61674
C         45.23115        44.15978         0.46572
C         43.96500        43.43173         0.17099
C         45.18268        45.59223         0.70086
C         43.92840        46.30714         0.59076
C         45.19988        48.52776         0.85603
C         43.92050        47.78759         0.59525
C         45.10809        49.92810         1.31330
C         43.91975        50.61460         1.24813
C         45.10582        52.72704         2.02035
C         43.93003        52.13370         1.24151
C         45.10477        54.23123         1.92604
C         43.90839        54.89198         2.06931
C         45.06970        57.05602         2.43318
C         43.87214        56.34847         2.24217
C         45.10292        58.47823         2.51054
C         43.85485        59.19197         2.42730
C         45.08159        61.34414         2.42435
C         43.85465        60.63878         2.39788
C         45.09671        62.79726         2.33825
C         43.85673        63.50935         2.26891
C         45.06327        65.64383         2.21012
C         43.83854        64.93877         2.23163
C         45.05082        67.11765         2.23900
C         43.78385        67.84266         2.06969
C         45.03763        69.94129         1.47806
C         43.82010        69.27005         1.85268
C         45.01129        71.33716         1.16771
C         43.79700        72.07593         1.27702
C         44.98268        74.13804         0.63615
C         43.79045        73.50575         1.01936
C         46.95857        34.39681        -3.79866
C         48.11691        36.41462        -2.93154
C         46.94264        35.74643        -3.34485
C         48.07297        37.73155        -2.42252
C         46.81385        38.42960        -2.37822
C         47.89998        40.27893        -1.10102
C         46.71648        39.69189        -1.68202
C         47.84309        41.50061        -0.39000
C         46.52753        42.05302         0.00298
C         47.67456        44.08058         0.89451
C         46.43221        43.46773         0.42172
C         47.64428        45.59248         1.17858
C         46.38388        46.30903         0.92514
C         47.65568        48.40291         1.10614
C         46.43987        47.73208         1.01125
C         47.65517        49.83966         1.44644
C         46.37185        50.61060         1.65792
C         47.64192        52.74938         1.71464
C         46.41356        52.07771         1.64964
C         47.66638        54.19821         1.94063
C         46.38662        55.01975         1.80361
C         47.61396        57.01488         2.84033
C         46.29798        56.22350         2.76614
C         47.62209        58.50704         2.76318
C         46.34143        59.21313         2.65971
C         47.54773        61.40336         2.83646
C         46.30971        60.62399         2.59817
C         47.59619        62.83240         2.42974
C         46.31751        63.52188         2.27896
C         47.51531        65.67625         1.88466
C         46.29141        64.94596         2.16039
C         47.52413        67.03207         1.64580
C         46.33644        67.85573         1.90424
C         47.38936        69.84216         0.77707
C         46.26169        69.23051         1.36674
C         47.32982        71.21556         0.40758
C         46.18454        71.98162         0.67837
C         47.35727        74.05300        -0.02160
C         46.18110        73.41187         0.41372
C         49.24075        38.39015        -1.96347
C         50.36453        40.32083        -0.94098
C         49.18435        39.66073        -1.34648
C         50.32599        41.56518        -0.25892
C         49.03007        42.16380         0.01158
C         50.15343        44.14017         0.97060
C         48.98041        43.45029         0.63460
C         50.15157        45.57062         1.12004
C         48.92806        46.29701         1.10531
C         50.15216        48.41666         1.05144
C         48.92058        47.71026         1.05600
C         50.16387        49.87007         0.89484
C         48.84177        50.64648         1.09187
C         50.15811        52.70714         1.56349
C         48.86129        52.04445         1.49635
C         50.16264        54.17582         1.85964
C         48.85283        54.86237         2.07179
C         50.19853        57.00819         2.44352
C         48.89762        56.26560         2.56986
C         50.15834        58.51001         2.60228
C         48.83496        59.18104         2.74869
C         50.16467        61.40009         2.75749
C         48.86876        60.64699         2.93440
C         50.13149        62.88555         2.43484
C         48.78888        63.49022         2.20872
C         50.00657        65.53767         1.28410
C         48.73492        64.86155         1.65273
C         50.03777        67.03123         1.21837
C         48.76087        67.79044         1.34075
C         49.78246        69.72653         0.18035
C         48.66160        69.13561         0.70734
C         49.73753        71.05573        -0.45838
C         48.45550        71.85241        -0.29652
C         49.73482        73.94129        -0.71256
C         48.53506        73.32985        -0.34660
C         51.48529        42.15629         0.25280
C         52.66077        44.17958         0.96131
C         51.42942        43.35507         1.15196
C         52.64577        45.57430         1.00918
C         51.38597        46.28979         1.11787
C         52.62595        48.44113         1.10954
C         51.38804        47.71374         1.11426
C         52.63968        49.87111         1.12617
C         51.41739        50.60155         1.07119
C         52.62009        52.71948         1.12378
C         51.40206        52.00750         1.13828
C         52.60257        54.17881         0.90293
C         51.27608        54.98789         1.25588
C         52.21009        57.28981         1.09968
C         51.25261        56.42543         1.57476
C         52.49911        58.58154         1.66938
C         51.35316        59.31011         2.18376
C         52.68407        61.40827         2.42112
C         51.38761        60.67554         2.35211
C         52.66213        62.88800         2.08579
C         51.39136        63.52996         1.92384
C         52.46025        65.58449         1.05328
C         51.31432        64.86000         1.45346
C         52.39675        66.95939         0.53628
C         51.18498        67.65898         0.56524
C         52.15726        69.64191        -0.62852
C         51.16091        69.15715         0.40931
C         52.19083        71.09478        -0.93511
C         50.98945        71.79715        -0.74076
C         52.17175        73.85646        -1.23241
C         50.95121        73.20721        -0.93259
C         53.85734        46.31694         1.00110
C         55.08761        48.44936         1.20830
C         53.87217        47.72703         1.10869
C         55.11213        49.86103         1.29922
C         53.86426        50.58656         1.22890
C         55.09537        52.72298         1.34876
C         53.85925        52.01264         1.22170
C         55.10669        54.13907         1.27097
C         53.91387        54.84625         0.91496
C         55.15226        56.98300         1.06288
C         54.03842        56.21167         0.67122
C         55.03516        58.40760         1.31628
C         53.80647        59.10247         1.69147
C         55.27540        61.05390         2.14544
C         53.94613        60.46803         2.26700
C         55.20247        63.20578         1.85552
C         53.81536        63.65771         1.73371
C         54.93985        65.63785         0.74697
C         53.69806        64.94331         1.16203
C         54.88080        67.03825         0.22635
C         53.55838        67.62519         0.07993
C         54.64966        69.57446        -1.11850
C         53.44140        68.86314        -0.68884
C         54.55001        70.88153        -1.63417
C         53.36688        71.71898        -1.43565
C         54.56373        74.00072        -1.64872
C         53.37523        73.16919        -1.50635
C         56.32043        50.57459         1.43879
C         57.53931        52.69474         1.68779
C         56.34610        51.99928         1.50108
C         57.58885        54.18268         1.86037
C         56.33373        54.86853         1.37284
C         57.65970        56.99978         1.54834
C         56.36853        56.25309         1.26141
C         57.50503        58.40832         1.00558
C         56.28371        59.09695         1.27204
C         57.62556        61.31431         1.31314
C         56.33856        60.51858         1.47498
C         57.39051        62.69897         0.68215
C         56.21427        63.55385         1.00893
C         57.32970        65.58236         0.05276
C         56.03208        64.78284         0.15199
C         57.25122        66.93170        -0.54982
C         56.02536        67.59355        -0.53804
C         57.09734        69.56867        -1.49131
C         55.90612        68.90553        -1.08054
C         57.01326        70.90424        -1.98474
C         55.73989        71.40152        -2.22011
C         57.06304        74.09217        -2.22548
C         55.73688        73.60890        -2.28993
C         58.83868        54.83595         1.31188
C         60.27033        56.80746         1.09488
C         58.95357        56.19443         1.17860
C         60.52908        58.03308         0.47422
C         58.52249        59.14635         0.39834
C         59.68394        61.21631        -0.14392
C         58.59989        60.55877         0.43457
C         59.85879        62.62945        -0.09260
C         58.57547        63.35466         0.03257
C         59.79498        65.45391        -0.68191
C         58.61507        64.83889        -0.04571
C         59.69222        66.78316        -1.18787
C         58.42143        67.52083        -1.12934
C         59.44501        69.50094        -2.28438
C         58.32520        68.85116        -1.57170
C         59.49133        70.97714        -2.39342
C         58.27782        71.75746        -1.89389
C         59.43651        73.79391        -2.73681
C         58.21172        73.24888        -2.44058
C         61.65656        58.88841         0.57075
C         62.55787        61.25157         0.18330
C         61.67408        60.19348        -0.00957
C         62.35827        62.61915        -0.29472
C         61.05903        63.29217        -0.38054
C         62.18631        65.39265        -1.12871
C         61.00509        64.71537        -0.71979
C         62.11635        66.73332        -1.62183
C         60.84801        67.39276        -1.71940
C         61.98764        69.50968        -2.52910
C         60.75645        68.72523        -2.35648
C         61.93871        70.87909        -2.65307
C         60.68974        71.61305        -2.58005
C         61.95253        73.76687        -2.98987
C         60.73639        73.11745        -2.38352
C         63.49881        63.37817        -0.55478
C         64.62397        65.42508        -1.37040
C         63.45564        64.72906        -1.03067
C         64.58210        66.75743        -1.87086
C         63.31153        67.38091        -2.04351
C         64.53226        69.43957        -2.92635
C         63.24693        68.72845        -2.63295
C         64.49191        70.93520        -2.85959
C         63.19979        71.66616        -2.69828
C         64.37712        73.76572        -3.42898
C         63.15250        73.10299        -3.08431
C         65.79786        67.46711        -2.12077
C         66.99827        69.56894        -2.65092
C         65.82999        68.80433        -2.57072
C         67.02797        70.90721        -3.24926
C         65.66413        71.64680        -3.42667
C         66.84915        73.79756        -3.67410
C         65.62465        73.12170        -3.49318
C         68.18701        71.78531        -3.20177
C         68.08214        73.13012        -3.50760
O         47.56525        44.60856         2.25656
O         32.35112        63.01466         0.14928
O         45.73194        41.11467         0.79486
O         29.57924        65.65245        -3.81957
O         23.91625        70.93560         0.14437
O         60.60414        60.48890        -0.89025
O         41.22626        42.65420        -2.78092
O         34.42591        65.48161        -2.06846
O         50.49161        53.27653         2.95207
O         51.61875        54.60422        -0.09713
O         34.92048        53.49272         2.15971
O         31.06899        63.20155        -3.43380
O         49.70792        67.73364         2.49537
O         38.07910        52.06731         2.87233
O         49.18335        64.92457         0.22494
O         63.81282        68.81409        -4.01970
O         34.43675        67.98591        -1.64796
O         57.53127        62.69587        -0.79575
O         49.35562        50.36084        -0.24601
O         33.61258        71.03795        -1.40538
O         50.36256        62.39116         3.79953
O         58.20044        65.48328         1.22140
O         35.36206        61.06787         1.63758
O         35.44253        56.28492        -1.18909
O         35.79159        63.16040        -1.46692
O         40.73168        58.93651         3.96179
O         48.15616        61.08843         4.12810
O         53.39387        60.85616         3.56803
O         48.39942        56.44691         3.94081
O         27.38401        68.90207        -3.67123
O         66.27091        70.98828        -4.53052
O         40.71569        54.23432         3.59878
O         64.09309        71.42490        -1.54082
O         50.59153        57.61729         3.70353
O         40.40842        71.54703         0.49339
O         59.82808        68.77740        -3.49965
O         52.37713        68.76490        -1.75123
O         32.96624        54.95068         1.31338
O         25.59996        71.16669        -3.00761
O         37.58894        58.65276         3.06397
O         38.52048        68.56856         3.54235
O         43.04893        43.37382         1.33240
O         38.31939        60.99052         3.83601
O         55.31388        66.71483         1.63386
O         48.77336        71.17362        -1.56089
O         44.69105        48.37066        -0.53212
O         58.52787        71.96953        -0.53951
O         34.05484        69.40437         1.78607
O         47.14153        50.04606         2.80127
O         38.56771        62.01041         0.39229
O         55.46595        62.24560         2.84320
O         57.77275        57.09923         2.94642
O         45.87893        67.72201         3.29443
O         34.57781        61.02629        -2.09062
O         59.46787        58.45950        -0.35799
O         36.99444        58.93642        -0.67810
O         40.88137        69.86002         3.62964
O         44.58915        39.80323        -3.79691
O         52.99982        56.89095         0.01987
O         55.60497        72.47297        -3.10500
O         36.84472        65.61846         3.15780
H         37.25337        64.88115         3.68872
O         57.64777        54.42997         3.30651
H         57.69003        55.43650         3.40718
O         46.43312        55.57182         0.45421
H         46.23637        54.84870        -0.17872
O         46.02261        55.68752         4.07877
H         46.86058        55.74007         4.59939
O         44.13005        52.51172        -0.15397
H         43.48873        52.01126        -0.70122
O         31.81510        58.55608        -3.35815
H         32.02414        59.48597        -3.59392
O         60.83540        73.32456        -0.93417
H         60.03848        72.84403        -0.54279
O         38.30978        63.50697         3.69978
H         38.26580        62.52452         3.98850
O         31.65969        65.40843         0.38320
H         31.88164        64.60460         0.91350
O         39.76554        56.55140         4.15775
H         40.18115        57.23748         4.72921
O         38.80155        72.43965         3.71010
H         37.85926        72.52857         3.98475
O         55.58007        64.44520        -1.17787
H         56.17979        63.73317        -1.51324
O         31.26352        59.25652         0.20781
H         31.76376        59.75190         0.88977
O         39.87561        39.56655        -1.22467
H         38.97474        39.90224        -1.03926
O         44.87208        52.39122         3.41596
H         45.51198        52.88849         3.96836
O         51.61319        69.70920         1.68914
H         51.07108        69.27095         2.38944
O         35.93702        72.35210         3.30515
H         35.04677        72.76070         3.36591
O         58.24133        61.52149         2.60261
H         57.54150        61.81284         3.22876
O         36.74582        43.92442        -1.49700
H         36.98096        44.31211        -2.36469
O         51.42904        42.87877         2.56198
H         50.51894        42.58186         2.77711
H         22.86771        74.81571        -0.26034
H         25.40547        75.03570        -0.23424
H         27.85014        75.14097         0.06708
H         30.27787        75.26262         0.37882
H         32.74192        75.39944         0.63822
H         35.28259        75.46645         0.86386
H         37.71787        75.39708         1.05779
H         40.11543        75.38092         1.17296
H         42.61193        75.33940         1.02106
H         44.97788        75.22293         0.45216
H         47.35854        75.14816        -0.13001
H         49.77103        75.03866        -0.78847
H         52.17781        74.95591        -1.28395
H         54.52937        74.98794        -1.16156
H         57.24411        75.08288        -1.77489
H         59.48431        74.82411        -3.13032
H         61.90981        74.84330        -3.22198
H         64.33743        74.84879        -3.62411
H         66.84473        74.88889        -3.80325
H         22.46875        68.97022        -1.91765
H         21.00577        71.11170        -1.47928
H         20.86451        73.45219        -0.73057
H         25.22083        65.08009        -2.76480
H         23.87193        67.06312        -2.46874
H         27.71568        60.95419        -2.68224
H         26.51847        63.05231        -2.87257
H         30.05645        56.58179        -2.00190
H         28.96873        58.79968        -2.65822
H         32.10049        52.29424        -0.63717
H         31.08737        54.47114        -1.36780
H         34.44640        48.08097        -0.43725
H         33.22601        50.16100        -0.36042
H         37.46840        43.79666         0.41868
H         35.68540        45.96114        -0.63213
H         39.82084        40.18905        -3.22073
H         38.19708        41.88711        -1.66844
H         42.31042        35.93685        -3.90145
H         41.00204        38.02107        -3.42827
H         45.80881        32.72917        -4.53504
H         43.63577        33.93503        -4.47323
H         47.91186        33.85025        -3.82645
H         49.08102        35.88612        -2.97168
H         50.21592        37.89241        -2.07448
H         51.33745        39.84145        -1.12545
H         52.45679        41.66736         0.08649
H         53.62339        43.65668         0.85592
H         54.81306        45.77336         0.95921
H         56.03794        47.89562         1.22753
H         57.26785        50.02126         1.51328
H         58.46729        52.12352         1.84648
H         59.71656        54.19524         1.12448
H         61.08621        56.31276         1.64704
H         62.48993        58.58890         1.22204
H         63.51836        61.04796         0.68200
H         64.48662        62.90437        -0.44731
H         65.60022        64.93210        -1.24966
H         66.74863        66.95552        -1.90853
H         67.94223        69.15382        -2.26599
H         69.14817        71.37375        -2.86130
H         68.99962        73.73615        -3.52104
