         206
 CSIRO Nanostructure Databank - Neutral Graphene Oxide Data Set
C         30.69630        31.75787        -1.80030
C         30.73295        33.00737        -1.70574
C         30.62290        36.11463        -1.32676
C         30.58227        37.34458        -1.11176
C         30.50839        40.43042        -0.42557
C         30.45561        41.63372        -0.07066
C         33.01715        28.97228        -1.06761
C         31.95995        29.52676        -1.45150
C         33.00000        31.67073        -1.09684
C         31.80460        30.93354        -1.48685
C         32.98603        33.11256        -1.05238
C         31.79526        33.86231        -1.33936
C         32.93040        36.00681        -0.83742
C         31.75672        35.26889        -1.19461
C         32.89207        37.43436        -0.64484
C         31.66787        38.18128        -0.73673
C         32.82472        40.27315        -0.06436
C         31.62312        39.56068        -0.42860
C         32.80323        41.65399         0.31883
C         31.57712        42.40216         0.33329
C         32.82623        44.25224         0.99422
C         31.67592        43.74903         0.82313
C         35.46598        27.45971         0.10434
C         35.36590        28.84835        -0.13819
C         34.23554        29.53912        -0.63803
C         35.38837        31.68546        -0.31287
C         34.19858        30.97182        -0.69353
C         35.37201        33.13208        -0.36450
C         34.16890        33.84500        -0.69568
C         35.35351        35.99828        -0.35484
C         34.14933        35.27205        -0.62709
C         35.35848        37.43128        -0.35177
C         34.10447        38.16471        -0.40204
C         35.30725        40.34291        -0.20215
C         34.06069        39.55352        -0.16249
C         35.36069        41.69855         0.34505
C         34.08113        42.23779         0.94005
C         35.36371        44.44772         1.09192
C         34.13065        43.77610         0.99831
C         35.55996        45.81441         1.41568
C         37.65216        27.45704         1.05230
C         36.45753        26.86313         0.58276
C         37.67911        28.85537         0.83107
C         36.55515        29.54675         0.25378
C         37.76486        31.69344         0.42532
C         36.56120        30.98055         0.10130
C         37.70026        33.14904         0.48765
C         36.52720        33.86409        -0.02069
C         37.80477        35.99672         0.03502
C         36.56010        35.28493        -0.08862
C         37.81311        37.41334        -0.08005
C         36.58737        38.11384        -0.23574
C         37.86028        40.28588         0.03228
C         36.62862        39.57813        -0.32317
C         37.83749        41.67253         0.26248
C         36.57557        42.37344         0.45849
C         37.87232        44.44106         1.02306
C         36.62221        43.76748         0.87006
C         37.95001        45.79067         1.47828
C         36.67690        46.35544         1.62609
C         40.06163        24.65370         1.06559
C         38.98307        25.27209         1.08141
C         40.20138        27.36691         1.50571
C         38.81283        26.67148         1.48051
C         40.21591        28.86719         1.41782
C         38.91201        29.61998         1.16308
C         40.21970        31.75082         0.82936
C         38.97363        31.05682         0.77757
C         40.28656        33.13042         0.54847
C         39.05034        33.90946         0.56511
C         40.28189        35.96329        -0.04164
C         39.04834        35.31320         0.15983
C         40.29514        37.40867        -0.13811
C         39.06403        38.12062        -0.05755
C         40.31556        40.24478         0.05909
C         39.07960        39.54589         0.02667
C         40.30796        41.66226         0.20332
C         39.08432        42.36635         0.40157
C         40.34664        44.46440         0.63666
C         39.12248        43.75779         0.71499
C         40.41147        45.88749         0.98435
C         39.26232        46.36875         1.90829
C         40.33531        48.54631         1.55554
C         39.36154        47.86668         1.91127
C         42.63835        24.59391         0.70913
C         41.38564        25.18648         0.96343
C         42.64057        27.35720         0.96621
C         41.43097        26.61861         1.13417
C         42.66959        28.82398         1.00124
C         41.49577        29.54904         1.12828
C         42.75397        31.70471         0.73281
C         41.49922        31.05894         1.28568
C         42.75903        33.06180         0.36051
C         41.52058        33.82361         0.28148
C         42.74800        35.89903        -0.45647
C         41.49922        35.20305        -0.03738
C         42.76001        37.42066        -0.70789
C         41.51295        38.12574        -0.23194
C         42.78117        40.26808        -0.23467
C         41.54183        39.53047        -0.12354
C         42.74723        41.66523        -0.17213
C         41.53762        42.37895         0.10314
C         42.74704        44.54879        -0.01170
C         41.53671        43.79590         0.22132
C         42.58589        46.03493        -0.23710
C         41.47962        46.66772         0.61008
C         42.71071        48.78674         0.55285
C         41.53966        48.13685         0.90734
C         43.68524        25.28900         0.62079
C         45.11675        27.37482         0.68826
C         43.87621        26.67530         0.72833
C         45.17594        28.77228         0.77870
C         43.94856        29.52556         0.85736
C         45.21404        31.61191         0.31619
C         43.95435        30.93300         0.71534
C         45.22198        33.08335         0.25248
C         44.02444        33.74684         0.17183
C         45.29552        35.93291        -0.07843
C         44.03806        35.17063        -0.24271
C         45.22754        37.38889         0.08954
C         44.01669        38.13747        -0.23410
C         45.30215        40.25386        -0.23861
C         44.04781        39.53741        -0.24904
C         45.28890        41.70310        -0.52956
C         43.96238        42.44451        -0.46639
C         45.21505        44.62195        -0.35494
C         43.95668        43.90898        -0.26066
C         45.17316        46.04255        -0.29509
C         43.95799        46.75869        -0.12943
C         43.70658        48.06564         0.14520
C         47.46731        27.34506         0.38376
C         46.40310        26.72110         0.56750
C         47.75978        28.72887         0.35283
C         46.52436        29.48690         0.90917
C         47.81725        31.58509         0.19306
C         46.50867        30.86922         0.30100
C         47.82290        33.05731         0.26541
C         46.51338        33.81422         0.29868
C         47.75837        35.98836        -0.06017
C         46.50528        35.27845         0.04556
C         47.80821        37.38893        -0.09028
C         46.57785        38.15683         0.17002
C         47.79138        40.27749        -0.23483
C         46.54736        39.59859        -0.13126
C         47.84648        41.76842        -0.52047
C         46.52112        42.49430        -0.36003
C         47.77284        44.60232        -0.25056
C         46.47761        43.88037        -0.34924
C         47.55754        46.01060        -0.31547
C         46.47891        46.62987        -0.29313
C         50.18193        28.84899        -0.32033
C         48.90077        29.39602        -0.01270
C         50.24115        31.57366        -0.32205
C         48.97755        30.88071        -0.05298
C         50.22228        33.03210        -0.41295
C         49.04192        33.75390        -0.18740
C         50.26531        35.98225        -0.66566
C         48.95200        35.19717        -0.44431
C         50.26872        37.44031        -0.39876
C         49.03831        38.13362        -0.24832
C         50.27665        40.31318        -0.08785
C         49.02114        39.57591        -0.17229
C         50.30285        41.72774         0.08284
C         48.95889        42.42827         0.29587
C         50.26708        44.42739         0.15564
C         48.95472        43.94810        -0.00352
C         51.27592        29.41183        -0.50933
C         52.60055        31.64008        -0.74859
C         51.44835        30.83428        -0.53559
C         52.55983        32.89025        -0.74627
C         51.46528        33.78318        -0.64495
C         52.62036        36.04747        -0.50688
C         51.51253        35.17402        -0.60842
C         52.63222        37.29105        -0.37262
C         51.49926        38.15650        -0.30724
C         52.63017        40.40132        -0.02027
C         51.50611        39.55963        -0.13593
C         52.68489        41.64606         0.14572
C         51.53138        42.46242         0.19737
C         51.38482        43.88865         0.35040
O         47.25762        33.54028         1.55722
O         38.21730        33.68111         1.74613
O         45.76801        30.98341        -0.95169
O         44.55861        42.05919        -1.76284
O         35.97832        40.16795        -1.49891
O         43.42080        35.24031        -1.60108
O         39.44935        29.45600         2.52787
O         49.42167        35.58358        -1.78628
O         39.49215        26.93848         2.71399
O         45.84485        37.79618         1.37004
O         48.21706        41.91968        -1.91711
H         47.45899        41.63600        -2.47075
O         46.77106        29.66597         2.32290
H         46.76962        28.78498         2.75308
O         41.55864        31.27952         2.73522
H         40.77832        30.80971         3.11880
O         48.61801        42.28837         1.68851
H         49.35054        42.65361         2.22791
O         42.73194        37.61033        -2.15581
H         43.16016        36.81475        -2.55388
O         42.17350        46.17261        -1.62179
H         42.01185        47.12299        -1.80223
O         34.07398        41.78779         2.33533
H         33.25692        42.13151         2.75680
O         39.53709        45.86817         3.21983
H         40.35105        46.29798         3.55561
