         261
 CSIRO Nanostructure Databank - Neutral Graphene Oxide Data Set
C        -11.38340         0.49837         0.32763
C        -10.05798         1.21484         0.35643
C         -9.08391         0.60948        -0.66506
C         -7.82453         1.39021        -0.81307
C         -6.53126         0.68904        -1.15753
C         -5.27693         1.49244        -1.29186
C         -3.93890         0.77761        -1.40584
C         -2.64672         1.54791        -1.51051
C         -1.34689         0.74883        -1.51447
C         -0.06163         1.44029        -1.15327
C          1.28618         0.71314        -1.20280
C          2.58319         1.46639        -1.07899
C          3.93362         0.74257        -1.14296
C          5.17834         1.49968        -1.51601
C          6.49316         0.76363        -1.63006
C          7.74405         1.51472        -1.22407
C          8.99497         0.75560        -0.91195
C          9.88897         1.37348         0.18536
C         11.23782         0.70728         0.23371
C        -10.14112         2.72600         0.21967
C         -9.02388         3.47037         0.06493
C         -7.73734         2.71979        -0.10928
C         -6.45611         3.47647        -0.12546
C         -5.26385         2.95005        -0.89939
C         -3.92779         3.60865        -0.71175
C         -2.61407         3.01567        -1.16458
C         -1.31939         3.70162        -0.80860
C         -0.05226         2.88895        -0.80276
C          1.23722         3.67762        -0.88643
C          2.54127         2.96888        -1.37504
C          3.83646         3.59846        -0.84229
C          5.15606         3.00935        -1.30324
C          6.42228         3.71831        -0.94124
C          7.55553         2.82983        -0.40283
C          8.86829         3.59533        -0.25138
C          9.96913         2.87641         0.03045
C         -9.07937         4.99598        -0.11972
C         -7.80402         5.73615         0.34129
C         -6.51337         4.95367         0.23325
C         -5.14565         5.57264         0.35050
C         -3.85887         4.78233         0.20045
C         -2.56905         5.54765         0.40360
C         -1.27312         4.84033         0.19880
C          0.01291         5.57337         0.50261
C          1.23151         5.03477        -0.23869
C          2.53351         5.63435         0.16613
C          3.82343         4.93031        -0.17065
C          5.06992         5.76732        -0.13188
C          6.38455         5.15141        -0.44942
C          7.62429         5.78902         0.08196
C          8.91069         5.11438        -0.36633
C         -7.80137         7.24133         0.60929
C         -6.79820         8.07117         0.19146
C         -4.93806         6.94845        -0.11113
C         -3.76019         7.59195        -0.23123
C         -2.53909         7.07123         0.38556
C         -1.26386         7.87036         0.57554
C         -0.00085         7.08496         0.86763
C          1.29119         7.87700         0.88782
C          2.52777         7.06177         0.59565
C          3.80298         7.83300         0.57259
C          5.03980         7.00443         0.71352
C          6.31178         7.65678         1.12507
C          7.58724         6.98089         0.73102
C         -6.32735         9.34282         0.77804
C         -5.10956         9.99193         0.80680
C         -3.78708         9.71140         0.20833
C         -2.53327        10.03899         0.65082
C         -1.27571         9.33434         0.07053
C          0.04228        10.01936         0.43361
C          1.21714         9.34605         0.52829
C          2.32892         9.62336         1.53546
C          3.74369         9.22802         1.08063
C          5.04096         9.78017         1.57579
C          6.20925         9.10107         1.49889
C        -11.39895        -0.84354         0.19793
C        -10.18444        -1.61260        -0.06800
C         -9.07655        -0.92940        -0.88777
C         -7.67535        -1.56864        -0.63690
C         -6.41706        -0.78634        -0.80991
C         -5.12433        -1.24181        -0.15204
C         -3.87526        -0.56127        -0.67249
C         -2.55122        -1.28817        -0.51636
C         -1.34933        -0.72540        -1.23003
C         -0.00836        -1.47031        -1.19773
C          1.29866        -0.76173        -1.48345
C          2.67035        -1.47041        -1.62984
C          3.93692        -0.74997        -1.15295
C          5.20629        -1.51260        -1.48464
C          6.51430        -0.77797        -1.61896
C          7.85026        -1.55551        -1.55684
C          9.15379        -0.75267        -1.19455
C         10.14989        -1.42679        -0.26668
C         11.32074        -0.62701         0.09603
C        -10.09406        -2.94514         0.16078
C         -8.86772        -3.74169        -0.24430
C         -7.65020        -2.87248         0.11389
C         -6.36364        -3.43460         0.65129
C         -5.07392        -2.56745         0.73225
C         -3.73424        -3.39379         0.59234
C         -2.50169        -2.68356         0.04896
C         -1.21451        -3.49895        -0.09260
C          0.03376        -2.83694        -0.60507
C          1.28612        -3.62622        -0.87141
C          2.58235        -2.94418        -1.20750
C          3.83636        -3.48957        -0.57019
C          5.16762        -2.96185        -1.04970
C          6.44414        -3.68062        -0.73090
C          7.77426        -2.99247        -0.95571
C          8.96846        -3.62404        -0.29119
C         10.10947        -2.74851         0.04007
C         -8.83889        -5.07827         0.51037
C         -7.47638        -5.74253         0.54902
C         -6.28130        -4.93134         0.93849
C         -4.95564        -5.65014         1.13563
C         -3.66098        -4.87890         0.89771
C         -2.38794        -5.66736         0.59237
C         -1.32152        -5.01338        -0.29844
C          0.02401        -5.72604        -0.08670
C          1.31026        -4.98093        -0.21867
C          2.62118        -5.70021        -0.30470
C          3.79980        -4.84327         0.05221
C          5.08316        -5.49668         0.50138
C          6.40897        -4.85598         0.22520
C          7.66440        -5.57589         0.58676
C          8.83364        -4.91035         0.45603
C         -7.40100        -7.07824         0.36038
C         -6.19429        -7.88467         0.64187
C         -4.92534        -7.17414         1.08049
C         -3.62310        -7.92475         0.91326
C         -2.33523        -7.15962         0.72039
C         -1.25748        -7.95079        -0.02702
C          0.03407        -7.22027        -0.28893
C          1.34551        -7.96446        -0.23408
C          2.65256        -7.17886        -0.15936
C          3.90924        -7.82437         0.36287
C          5.00639        -6.94660         0.92040
C          6.23903        -7.59486         1.46431
C          7.59483        -6.86486         1.42114
C         -6.09619        -9.20775        -0.01293
C         -4.93183        -9.86230        -0.17481
C         -3.64662        -9.30570         0.29878
C         -2.37309        -9.68261        -0.43271
C         -1.09955        -9.40280         0.33430
C          0.05890       -10.09373         0.34600
C          1.43035        -9.48388         0.06952
C          2.51589        -9.79794         1.06407
C          3.85213        -9.26822         0.88656
C          5.05632        -9.77760         1.59944
C          6.20439        -9.07265         1.67413
O         -2.73929         6.31247         1.61002
O          8.86311         1.53826        -2.13642
O         -3.79771         8.82930        -0.89911
O         -0.52835         4.59336         1.42361
O         -4.78901         3.89198        -1.88945
O         -0.23602        -2.95858         0.82400
O         -3.38731        -3.90388         1.92216
O         -3.39327         1.10773        -2.69518
O          0.68224        -7.69267        -1.50383
O          7.10686         2.44285         0.87515
O          4.06308        -0.06338         0.09839
O          4.28541        -8.90555        -0.50388
O          5.77313        -1.28643        -2.78039
O         -8.85020         1.38833        -1.85498
O         -4.47580        -0.20102         0.62329
O         -0.21075         1.90852         0.25038
O         -1.86218        -6.31659         1.79212
O         -4.54468         4.85590         1.47961
O         -5.72811        -5.18321         2.26644
O          1.86444        -3.73379        -2.20504
O          5.68194         6.00868        -1.43117
O         -6.87141        -1.68132        -1.86120
O         -5.78278        -7.81300         2.05005
O          3.55696        -3.65055         0.85237
O          3.81214         8.93514        -0.37386
O          2.56175         5.97657         1.58043
O          0.71837        -5.22654         1.08803
O          1.91484         0.99709         0.09418
O         -2.01002        -8.45977        -1.24387
O         -2.23907        -1.50564         0.88285
O          5.98815         3.64633        -2.31828
O         -3.48200        -9.11649         1.73612
O         -0.81978         7.61904         1.93393
O          8.68578        -3.84815        -1.73363
O          5.70707        -4.62611         1.49039
O         -1.46991        -0.21420        -2.58140
O          0.51715        -1.34989        -2.55203
O          2.90629        -6.52513        -1.46023
O         -7.38824        -2.81603         1.52842
O          1.75022         8.44759         2.25784
O          5.75288        -3.91021        -1.99660
O          5.50936         6.82800         2.07252
O         -6.00588         7.51723        -0.83239
O          5.77315         1.20774        -2.80972
O         -7.23342         5.09585         1.51239
O          9.78531        -0.88184        -2.50447
O         -6.81693         2.64623         1.02332
O          3.87937         3.69133         0.61147
O         -9.50903        -1.29504        -2.15523
O          5.21591        -7.02537         2.36372
O          1.04169         4.90374        -1.68016
O         -6.06570         1.11998        -2.46355
O         -1.92642         3.93122        -2.09643
O         -9.33490         5.27965        -1.50116
H         -8.75733         4.72488        -2.06457
O          1.82913       -10.10297        -1.18033
H          1.45873        -9.56068        -1.91285
O         -1.74456        -5.17452        -1.66994
H         -1.56523        -6.09206        -1.97210
O          8.15992        -1.75817        -2.99585
H          8.58137        -2.65581        -3.07643
O         -1.34472         9.23339        -1.36414
H         -1.60073        10.10364        -1.73195
O         -8.87036        -3.97836        -1.65718
H         -9.07420        -3.11089        -2.10747
O          9.25305         1.05898         1.45053
H          8.40637         1.60031         1.50784
O          2.54236         3.05718        -2.80658
H          2.26908         3.96599        -3.06511
O         -9.24203        -4.85551         1.86609
H         -8.57689        -4.25561         2.27975
O         -5.08072        -2.10380         2.07449
H         -4.25334        -1.60014         2.23655
O          8.59706        -7.77457         0.96508
H          8.49681        -7.91183         0.00088
O          9.13029         5.47156        -1.74187
H          8.36309         5.17141        -2.27382
O         -9.43439         0.90840         1.63673
H         -9.92218         1.37445         2.34712
O          2.93524        -1.48014        -3.04697
H          2.21332        -1.98874        -3.48295
H         12.27181        -1.15735         0.25480
H         12.12271         1.30345         0.50100
H         10.93795         3.37338         0.19987
H          9.77992         5.50894         0.21555
H          8.53227         7.45854         1.03603
H          7.13708         9.60550         1.81153
H          5.04796        10.81832         1.94379
H          2.27824        10.55973         2.13608
H          0.03540        11.11272         0.57261
H         -2.40195        10.67382         1.53993
H         -5.09241        10.86740         1.47988
H         -7.08677         9.80583         1.43294
H         -8.49542         7.56658         1.40086
H         -9.95218         5.39419         0.45811
H        -11.12805         3.20932         0.30235
H        -12.31283         1.05830         0.51114
H        -12.34578        -1.40056         0.27234
H        -10.88367        -3.46062         0.73002
H         -9.57796        -5.77780         0.04897
H         -8.30687        -7.62718         0.05711
H         -7.02385        -9.63531        -0.42218
H         -4.90461       -10.82083        -0.71481
H         -2.43578       -10.60286        -1.05482
H          0.02123       -11.19192         0.26645
H          2.30546       -10.43176         1.93724
H          5.04161       -10.83361         1.90720
H          7.11373        -9.54169         2.07750
H          7.86446        -6.59884         2.47615
H          9.76147        -5.35647         0.84612
H         10.91946        -3.18494         0.64382
