         276
 CSIRO Nanostructure Databank - Neutral Graphene Oxide Data Set
C        -11.05350         0.63854         0.63868
C         -9.99552         1.48699        -0.05056
C         -8.67896         0.71038        -0.09758
C         -7.39879         1.43409        -0.32817
C         -6.11751         0.65041        -0.68884
C         -5.00315         1.47017        -1.33170
C         -3.70888         0.69685        -1.42356
C         -2.41331         1.43096        -1.15260
C         -1.18207         0.62013        -0.86528
C          0.09490         1.29933        -0.45264
C          1.21142         0.57125         0.22341
C          2.21719         1.34139         1.07067
C          3.58582         0.63366         1.27490
C          4.90682         1.37651         1.25877
C          6.22437         0.62088         1.15315
C          7.53522         1.41092         0.83520
C          8.54887         0.64547        -0.00175
C          9.84324         1.39022        -0.26843
C         11.03789         0.53902        -0.50050
C         -9.80185         2.84984         0.66077
C         -8.62720         3.65116         0.10006
C         -7.51197         2.92086        -0.56600
C         -6.29300         3.68870        -0.98912
C         -4.98878         2.95564        -1.19277
C         -3.79329         3.60113        -0.51681
C         -2.47300         2.83719        -0.61220
C         -1.17707         3.57001        -0.47509
C          0.11919         2.81104        -0.59951
C          1.31588         3.54503        -0.10964
C          2.37054         2.84496         0.70234
C          3.67503         3.56867         0.82181
C          4.94015         2.75839         0.61813
C          6.27569         3.57375         0.96445
C          7.43680         2.85763         0.29297
C          8.79163         3.53946         0.45389
C          9.93214         2.78255         0.19915
C         -8.59717         5.00204         0.22028
C         -7.47335         5.86678        -0.22198
C         -6.22444         5.17693        -0.79211
C         -4.91348         5.83417        -0.57646
C         -3.69519         5.09204        -0.63348
C         -2.42011         5.73086        -0.48978
C         -1.20832         5.05330        -0.42960
C          0.02319         5.83081        -0.01179
C          1.31250         5.05309        -0.17646
C          2.58823         5.78839         0.01574
C          3.78113         5.04648         0.53390
C          5.09564         5.73676         0.43935
C          6.33562         4.90507         0.20360
C          7.60996         5.70885         0.40593
C          8.80472         4.95383         0.57082
C         -7.28987         7.20574         0.35295
C         -6.10518         7.89990         0.16348
C         -4.92550         7.21055        -0.27860
C         -3.65278         7.95023        -0.16816
C         -2.38174         7.20857        -0.29970
C         -1.16281         7.96652        -0.73846
C          0.12280         7.21496        -0.67986
C          1.48049         7.95950        -0.68745
C          2.54330         7.27840         0.18714
C          3.84415         7.99236         0.33360
C          5.07838         7.17490         0.01534
C          6.40363         7.85577        -0.17022
C          7.60638         7.08738         0.20386
C         -5.94527         9.30056         0.58158
C         -4.83451        10.02662         0.32713
C         -3.69624         9.42973        -0.48067
C         -2.33453        10.09756        -0.35780
C         -1.17214         9.44860        -0.60766
C          0.14527        10.19571        -0.83688
C          1.42406         9.46364        -0.42702
C          2.58016        10.13385        -0.19670
C          3.89924         9.52173         0.28077
C          5.19749        10.03525        -0.31781
C          6.35155         9.33862        -0.31919
C        -10.90498        -0.65714         0.95507
C         -9.59776        -1.40587         0.77984
C         -8.83724        -0.77439        -0.39880
C         -7.54318        -1.51355        -0.78507
C         -6.30656        -0.78327        -1.23676
C         -5.00032        -1.56977        -1.44543
C         -3.70232        -0.79582        -1.57087
C         -2.32564        -1.52898        -1.53391
C         -1.45538        -0.84115        -0.44524
C         -0.18813        -1.61071         0.02954
C          1.02394        -0.87901         0.57739
C          2.28410        -1.64135         0.94850
C          3.58119        -0.89427         1.26323
C          4.89295        -1.64593         1.15738
C          6.21730        -0.89247         1.08699
C          7.44802        -1.61612         0.57517
C          8.62581        -0.84210         0.08966
C          9.63102        -1.52885        -0.84796
C         10.94659        -0.77499        -0.77849
C         -9.72186        -2.89349         0.57776
C         -8.61941        -3.63452         0.19096
C         -7.34010        -2.90009        -0.16166
C         -6.28647        -3.75087        -0.84605
C         -4.98742        -3.05411        -1.21836
C         -3.69247        -3.76857        -0.82968
C         -2.42019        -3.06260        -1.32775
C         -1.15142        -3.77590        -0.97519
C          0.01671        -3.03012        -0.38850
C          1.18524        -3.69930        -0.13142
C          2.32784        -3.11686         0.62495
C          3.62903        -3.88954         0.73195
C          4.93644        -3.14451         0.90850
C          6.19908        -3.82983         0.47929
C          7.31285        -2.98192        -0.11745
C          8.65680        -3.70578        -0.12605
C          9.75343        -2.99443        -0.45347
C         -8.62104        -5.05418         0.27425
C         -7.45348        -5.85150         0.12980
C         -6.27082        -5.21387        -0.52241
C         -4.94183        -5.90746        -0.43991
C         -3.78022        -5.31753        -1.25128
C         -2.46068        -6.05728        -0.91838
C         -1.20587        -5.27662        -0.70752
C         -0.03624        -5.81142         0.08292
C          1.21730        -5.14246        -0.61897
C          2.51786        -5.93475        -0.43522
C          3.70776        -5.28417         0.19874
C          5.00680        -5.98380         0.02863
C          6.19857        -5.27328         0.10659
C          7.44964        -5.95444         0.06128
C          8.73004        -5.16568         0.28547
C         -7.44410        -7.20164         0.44321
C         -6.17472        -7.96000         0.75532
C         -4.92467        -7.30929         0.12377
C         -3.83045        -8.17489        -0.41751
C         -2.48244        -7.53192        -0.49480
C         -1.23874        -8.16181         0.04831
C          0.01158        -7.33933         0.21007
C          1.26714        -8.13122         0.04669
C          2.52856        -7.42779        -0.31343
C          3.79091        -8.15469        -0.03217
C          5.01135        -7.41064        -0.01939
C          6.25676        -8.10055        -0.01424
C          7.46511        -7.34283        -0.00198
C         -6.18796        -9.44753         0.46491
C         -5.08209       -10.20502         0.57720
C         -3.74084        -9.64383         0.93746
C         -2.52733       -10.21743         0.45926
C         -1.21638        -9.53463         0.77224
C          0.05253       -10.26288         0.31279
C          1.20069        -9.61946        -0.00845
C          2.50537       -10.34711        -0.33582
C          3.78062        -9.54667        -0.07110
C          5.03218       -10.22259        -0.02220
C          6.22700        -9.52608         0.00002
O          4.20639         1.18646         2.49150
O         -6.67055        -4.71810        -1.84769
O          4.22532        -1.42674         2.43816
O         -0.58254         7.36563        -1.93558
O          2.99642         7.66127         1.50409
O         -7.29465        -1.23554        -2.19855
O          8.60739        -1.40266         1.43876
O          6.46559        -0.19484         2.33599
O          5.60894         7.29181        -1.32082
O        -11.00656         3.59916         0.54658
H        -11.26983         3.56259        -0.39904
O         -1.47023         1.12464        -2.21309
O          2.77963         3.47691         1.96196
O         -1.46090        -5.97322        -1.96068
O         -7.30009         3.28740        -1.95916
O          1.99091         7.91061        -1.98637
O          1.16115         3.15289        -1.52914
O         -3.73470         0.05776        -2.74720
O          1.96172        -2.62946         1.95730
O         -1.60785        -8.33940        -1.35811
O          8.14953         1.62550         2.13733
H          8.00707         0.78720         2.64849
O         -1.61380        -3.65032        -2.36417
O          2.70606        -6.76966        -1.62308
O          1.24511         0.73032        -1.20548
O          7.13492         3.06380        -1.12781
O         -1.67934        -1.36095        -2.78538
H         -2.10535        -0.60259        -3.25521
O         -2.86311         7.61133         1.04007
O          3.43830        -5.02713         1.63269
O         -5.06148        -2.52010        -2.55826
O         -4.47078        -6.18585         0.92692
O          0.79555        -7.68375         1.39617
O          5.88128        -3.70186         1.89477
O         -7.14487         5.87363        -1.66116
O          4.44931         5.60261         1.72373
O          0.96957        -5.05570        -2.02313
H          1.35134        -5.84781        -2.46624
O         -7.82381         1.06064         1.02951
O         -5.21561         4.16976         1.41439
H         -4.76633         4.75170         2.07636
O        -10.45102         1.77311        -1.38559
H        -10.55518         0.90377        -1.84009
O          8.78010         1.18928        -1.30143
O          6.89754        -2.71130        -1.44810
O          2.15042         5.43401        -1.31706
O         -5.02599         2.33439        -2.50911
O         -3.56843        -3.70502         0.60175
H         -4.45232        -3.79417         1.03793
O          6.39899         4.40363        -1.18903
O          9.02580        -5.22353         1.69666
H          8.32790        -4.72866         2.17646
O          4.84925         2.38581        -0.77902
H          4.92238         3.18020        -1.35927
O         -5.46641         0.34276         0.58220
H         -6.17255         0.30604         1.27512
O         -6.20453        -3.71225         1.78479
H         -6.33147        -3.47844         2.73698
O         -1.82333         2.93320         0.70529
O         -2.34031        -0.74517         0.69112
H         -1.78524        -0.73170         1.50858
O          4.00804         9.98842         1.66231
H          3.45168         9.38338         2.20679
O         -0.04254        -1.29133         1.46341
O         -6.66693        -2.48961         1.12522
O         -4.14704         3.31258         0.97824
O         -8.81134        -1.19515         1.98469
H         -9.36317        -1.45283         2.75164
O         -0.09196         6.07861         1.41880
H         -0.99042         6.42589         1.61403
O         -4.17750        -8.79248        -1.58147
H         -3.35245        -8.99827        -2.08192
O          6.42664         3.73248         2.35642
H          6.95555         2.97455         2.70686
O         -4.06915         9.52490        -1.88470
H         -4.09323        10.47185        -2.13418
O          2.54746       -11.60702         0.33097
H          2.66559       -11.44945         1.28981
O         -4.03798        -5.43367        -2.63541
H         -3.25408        -5.08104        -3.11553
O         -6.05084        -7.82805         2.19502
H         -5.61269        -6.96420         2.36756
O          1.57802         1.31107         2.35948
H          2.19427         1.74223         2.99657
O         -1.11901        -9.32291         2.19688
H         -0.29620        -8.79341         2.35494
O          0.09715        11.48663        -0.23615
H          0.12268        11.38129         0.73667
O         -9.72427        -0.87831        -1.53846
H         -9.15916        -0.96086        -2.34312
O         -0.17834        -5.29880         1.41267
H          0.58196        -5.60246         1.95620
O          9.12305        -1.46872        -2.19092
H          8.23475        -1.94229        -2.17808
O         -3.71901        -8.95078         2.10864
H         -2.78753        -8.90479         2.44744
H         11.86995        -1.34575        -0.96498
H         12.02428         1.02607        -0.45024
H         10.92625         3.25193         0.27092
H          9.77069         5.48018         0.62569
H          8.55148         7.64060         0.32643
H          7.28532         9.84160        -0.61754
H          5.23445        11.11369        -0.53663
H          2.53296        11.23455        -0.13329
H          0.21346        10.35726        -1.94797
H         -2.31256        11.19518        -0.25081
H         -4.78216        11.08188         0.63751
H         -6.79360         9.76498         1.10817
H         -8.12584         7.67661         0.89244
H         -9.44229         5.49703         0.72550
H         -9.61959         2.66383         1.75175
H        -12.01861         1.13577         0.82526
H        -11.74071        -1.19912         1.42815
H        -10.64549        -3.41218         0.87840
H         -9.54079        -5.54367         0.62878
H         -8.36645        -7.63550         0.86089
H         -7.14278        -9.91755         0.18588
H         -5.12669       -11.27863         0.33711
H         -2.57350       -10.81603        -0.46316
H          0.05380       -11.36364         0.34755
H          2.49020       -10.57555        -1.43913
H          5.03618       -11.32185        -0.03801
H          7.17766       -10.07866         0.01247
H          8.42732        -7.87659         0.00940
H          9.58131        -5.66759        -0.24002
H         10.74311        -3.47789        -0.49608
