         600
 CSIRO Nanostructure Databank - Neutral Graphene Oxide Data Set
C         23.20258        27.51238         1.98265
C         23.18086        28.88127         1.84089
C         23.14538        31.80171         1.55577
C         23.13425        33.17683         1.43897
C         23.10032        36.10015         1.12788
C         23.08341        37.46484         0.99835
C         23.10645        40.41839         0.85749
C         23.05535        41.73127         0.54692
C         23.02319        44.62146        -0.11100
C         23.03729        46.01749        -0.21307
C         25.60802        24.66420         1.72905
C         24.44032        25.36778         1.93445
C         25.59388        27.47156         1.41789
C         24.40608        26.77912         1.77943
C         25.56817        28.89728         1.26173
C         24.34999        29.61085         1.48508
C         25.53064        31.74629         1.03849
C         24.33272        31.04734         1.36004
C         25.52304        33.17165         0.93715
C         24.31203        33.90350         1.13184
C         25.51816        36.03567         0.76641
C         24.30997        35.34330         1.01123
C         25.50970        37.46926         0.63553
C         24.28221        38.20270         0.74389
C         25.49226        40.29867         0.24645
C         24.28593        39.61418         0.58707
C         25.47674        41.69437        -0.04659
C         24.14189        42.36365        -0.28539
C         25.43354        44.54190        -0.44145
C         24.19751        43.87451        -0.22077
C         25.44502        45.95826        -0.61943
C         24.22706        46.69633        -0.49763
C         25.33928        48.76247        -1.16993
C         24.23309        48.12563        -0.71413
C         28.07991        23.17727         1.20279
C         28.03514        24.58672         1.11508
C         26.81257        25.32278         1.36251
C         28.00426        27.43583         0.86624
C         26.80448        26.73852         1.21697
C         27.98204        28.85531         0.69410
C         26.75525        29.58912         0.89147
C         27.92528        31.72188         0.44846
C         26.74502        31.02069         0.78379
C         27.94883        33.14025         0.43651
C         26.73953        33.86857         0.66104
C         27.97766        35.96905         0.43992
C         26.74994        35.29427         0.61175
C         27.98972        37.43721         0.53842
C         26.71991        38.17819         0.44805
C         27.95368        40.28705        -0.03805
C         26.73178        39.57690         0.23928
C         27.92363        41.68331        -0.28521
C         26.67381        42.39195        -0.28268
C         27.88779        44.51401        -0.71556
C         26.67086        43.81720        -0.51477
C         27.88711        45.93035        -0.96029
C         26.65568        46.62309        -0.97625
C         27.96005        48.80308        -1.48131
C         26.58719        48.02574        -1.39753
C         27.98232        50.25548        -1.33271
C         30.43483        23.13131         0.57078
C         29.25131        22.47551         0.94764
C         30.42442        24.55942         0.44460
C         29.22278        25.28341         0.75014
C         30.41194        27.40552         0.32318
C         29.21258        26.71077         0.64398
C         30.39542        28.82658         0.20653
C         29.17184        29.53084         0.34473
C         30.41387        31.69816         0.02481
C         29.10636        30.96603        -0.09847
C         30.41326        33.10872         0.05150
C         29.18057        33.84270         0.21568
C         30.44037        35.96847         0.02288
C         29.19665        35.26099         0.24728
C         30.46717        37.38280        -0.12028
C         29.26417        38.16626         0.21837
C         30.36656        40.25357        -0.50646
C         29.19560        39.59064        -0.15199
C         30.37325        41.67186        -0.61600
C         29.14218        42.38815        -0.52664
C         30.37058        44.50477        -0.79081
C         29.13624        43.80295        -0.69572
C         30.37536        45.93086        -0.87324
C         29.14110        46.64487        -1.03333
C         30.37926        48.77988        -0.88820
C         29.16996        48.05593        -1.12567
C         30.37092        50.20264        -0.80331
C         29.12487        50.90150        -0.97678
C         32.89077        20.25732         0.45503
C         31.73814        20.96948         0.60794
C         32.79492        23.04399        -0.12966
C         31.67314        22.39394         0.33406
C         32.74621        24.48556        -0.56198
C         31.58746        25.25500         0.02687
C         32.81696        27.39534        -0.23209
C         31.61695        26.67695         0.02879
C         32.83654        28.81166        -0.18574
C         31.62109        29.53531        -0.02766
C         32.86836        31.67364        -0.13913
C         31.62744        30.97389        -0.05148
C         32.87201        33.09520        -0.17836
C         31.64735        33.81360        -0.07776
C         32.87479        35.94367        -0.36131
C         31.65089        35.24398        -0.14461
C         32.87323        37.35763        -0.52402
C         31.63968        38.05656        -0.46743
C         32.87916        40.23746        -0.68605
C         31.59555        39.48862        -0.93049
C         32.86300        41.64440        -0.68213
C         31.61344        42.37310        -0.71830
C         32.85239        44.50588        -0.69764
C         31.61234        43.78853        -0.74228
C         32.84665        45.92343        -0.69456
C         31.60819        46.63969        -0.79284
C         32.83913        48.77773        -0.60383
C         31.61193        48.06438        -0.75338
C         32.83273        50.20022        -0.51137
C         31.59399        50.91128        -0.57361
C         32.79978        53.00232        -0.20152
C         31.61987        52.32550        -0.41908
C         35.46602        18.79208         0.30744
C         35.31529        20.19617        -0.06045
C         34.10632        20.87443         0.00756
C         35.30404        23.06298        -0.32077
C         34.03077        22.28156        -0.53756
C         35.27293        24.50284        -0.32682
C         34.06920        25.20069        -0.39422
C         35.33178        27.38609        -0.36541
C         34.05383        26.67151        -0.71176
C         35.32652        28.80232        -0.30267
C         34.09067        29.52619        -0.26739
C         35.34289        31.65945        -0.21739
C         34.10706        30.94737        -0.20869
C         35.34584        33.09945        -0.28009
C         34.10950        33.80737        -0.30813
C         35.33419        35.93386        -0.59339
C         34.11011        35.22619        -0.42196
C         35.33108        37.36327        -0.70730
C         34.10822        38.07334        -0.66670
C         35.33188        40.22511        -0.59114
C         34.10534        39.52082        -0.66080
C         35.33193        41.65556        -0.53487
C         34.09636        42.36658        -0.61087
C         35.32185        44.50345        -0.51819
C         34.09120        43.79112        -0.60772
C         35.31298        45.92722        -0.51101
C         34.08049        46.64026        -0.59222
C         35.31396        48.77766        -0.46946
C         34.07707        48.06380        -0.54221
C         35.30723        50.20911        -0.35839
C         34.06721        50.91230        -0.34111
C         35.27705        53.04087         0.08998
C         34.04720        52.32846        -0.15592
C         35.28826        54.43417         0.36454
C         37.66703        18.76707        -0.83204
C         36.59304        18.11377         0.01147
C         37.73768        20.24348        -0.52213
C         36.53711        20.92655        -0.35105
C         37.76783        23.07795        -0.25973
C         36.51652        22.37329        -0.30313
C         37.75583        24.51462        -0.21018
C         36.53666        25.22160        -0.27195
C         37.78177        27.36719        -0.18828
C         36.53775        26.66134        -0.27010
C         37.79442        28.79455        -0.21591
C         36.56750        29.51444        -0.24700
C         37.82393        31.63848        -0.21540
C         36.58182        30.94279        -0.22212
C         37.84270        33.12497         0.03593
C         36.56305        33.82115        -0.33823
C         37.81327        35.92414        -0.74861
C         36.56869        35.21893        -0.54649
C         37.78342        37.33623        -0.95759
C         36.57651        38.06599        -0.84665
C         37.78323        40.21611        -0.63470
C         36.58637        39.51049        -0.71538
C         37.81512        41.61576        -0.08738
C         36.55280        42.37961        -0.40935
C         37.80440        44.51676        -0.27985
C         36.56000        43.78171        -0.40917
C         37.77958        45.91068        -0.29754
C         36.54811        46.64960        -0.43980
C         37.81720        48.81873        -0.73218
C         36.54013        48.05954        -0.47154
C         37.78097        50.25943        -0.28532
C         36.54401        50.92967        -0.19574
C         37.73682        53.05007         0.30233
C         36.51620        52.34411         0.06759
C         37.71591        54.44497         0.60689
C         36.46276        55.10884         0.62366
C         40.22808        15.97162        -1.02157
C         39.02614        16.65926        -0.95665
C         40.20651        18.78308        -0.71427
C         38.99780        18.05677        -0.79338
C         40.20482        20.21974        -0.56402
C         38.98661        20.93825        -0.47981
C         40.23982        23.05536        -0.14823
C         38.98658        22.36446        -0.29984
C         40.23166        24.50102        -0.01277
C         39.00519        25.21878        -0.11830
C         40.24537        27.35930        -0.09509
C         39.00808        26.64600        -0.12129
C         40.25904        28.78497        -0.15165
C         39.03479        29.50512        -0.21304
C         40.30243        31.65062        -0.31233
C         39.04050        30.93730        -0.24660
C         40.30779        33.08711        -0.47018
C         39.08342        33.81503        -0.46819
C         40.30198        35.86057        -1.12984
C         39.03630        35.18367        -0.77631
C         40.32783        37.36195        -1.32135
C         39.01299        38.07890        -1.28402
C         40.32304        40.24826        -0.79917
C         39.02759        39.58408        -1.05626
C         40.31155        41.67431        -0.57063
C         39.08583        42.37427        -0.40283
C         40.30529        44.49232        -0.29442
C         39.07133        43.78393        -0.28199
C         40.33213        45.91971         0.05032
C         39.01046        46.67423        -0.01616
C         40.27501        48.81251        -0.26051
C         39.04409        48.11211        -0.23747
C         40.25703        50.27334        -0.18073
C         39.00577        50.95505        -0.08674
C         40.19577        53.04303         0.50243
C         38.98298        52.35255         0.23439
C         40.17939        54.42837         0.86220
C         38.94621        55.14105         0.89980
C         40.15150        57.17648         1.50831
C         38.96795        56.52337         1.23380
C         42.70199        15.98785        -1.03903
C         41.45743        16.67054        -0.93880
C         42.69303        18.80502        -0.73635
C         41.45165        18.08795        -0.78148
C         42.67853        20.22502        -0.61007
C         41.45411        20.91766        -0.48220
C         42.71300        22.97006         0.14651
C         41.43847        22.33057        -0.21285
C         42.70411        24.50993         0.35203
C         41.44674        25.22156         0.10709
C         42.71620        27.34806         0.00532
C         41.46759        26.63635         0.00129
C         42.71272        28.76223        -0.14016
C         41.50760        29.48683        -0.18764
C         42.76746        31.64023        -0.33006
C         41.50952        30.93132        -0.29963
C         42.78180        33.06781        -0.46167
C         41.55348        33.77761        -0.60121
C         42.76583        35.91663        -0.92668
C         41.57482        35.19193        -0.82152
C         42.79661        37.35801        -0.95908
C         41.57386        38.09679        -1.02398
C         42.77078        40.23007        -0.50525
C         41.51522        39.50773        -0.81127
C         42.80280        41.70058        -0.70715
C         41.53841        42.40832        -0.62603
C         42.74924        44.57935        -0.75769
C         41.52434        43.81710        -0.53504
C         42.76227        45.94948        -0.72071
C         41.65303        46.68660         0.00339
C         42.68926        48.96680        -0.79778
C         41.50080        48.14062        -0.35412
C         42.72595        50.28275        -0.06281
C         41.46674        50.96192         0.07091
C         42.63990        53.00064         0.82278
C         41.44059        52.34529         0.44988
C         42.64979        54.38256         1.14646
C         41.40619        55.09765         1.16049
C         42.62110        57.15680         1.73764
C         41.39047        56.48542         1.47314
C         43.89364        16.68124        -0.96870
C         45.19135        18.80036        -0.64422
C         43.92598        18.08850        -0.80346
C         45.21460        20.20486        -0.56081
C         43.95928        20.99262        -0.85100
C         45.18895        23.03478        -0.04580
C         43.98135        22.34673        -0.19702
C         45.20529        24.46374         0.18876
C         43.98151        25.21811         0.22484
C         45.19348        27.36825         0.30056
C         43.94174        26.62054         0.13069
C         45.23462        28.80845         0.02483
C         43.99537        29.46792        -0.49096
C         45.21624        31.65679        -0.11724
C         43.98537        30.95215        -0.26480
C         45.24010        33.09280        -0.26593
C         44.02167        33.75129        -0.54874
C         45.35968        35.90903        -0.87216
C         44.03132        35.16270        -0.94515
C         45.29789        37.37115        -0.71328
C         44.05674        38.02783        -0.79195
C         45.32842        40.20454        -0.71268
C         44.06346        39.47727        -0.54506
C         45.30157        41.63925        -1.16280
C         43.99031        42.35946        -0.89251
C         45.30525        44.54950        -1.01932
C         43.97920        43.82181        -1.10235
C         45.29800        45.98423        -0.70504
C         44.02817        46.70064        -0.92041
C         45.24158        48.85587        -0.26999
C         44.01934        48.20732        -0.79765
C         45.19512        50.20244         0.18063
C         43.92027        50.87293         0.31782
C         45.19890        52.97993         1.11517
C         43.86640        52.20820         0.93683
C         45.13833        54.44234         1.16247
C         43.88251        55.09539         1.35059
C         43.81905        56.49082         1.65486
C         47.61862        18.76735        -0.39100
C         46.42038        18.09710        -0.52505
C         47.66789        20.18170        -0.31920
C         46.43903        20.90244        -0.36510
C         47.67793        23.02592        -0.11768
C         46.44704        22.33607        -0.20580
C         47.68798        24.45328         0.01757
C         46.45549        25.12985         0.16391
C         47.71736        27.30723        -0.05990
C         46.47907        26.58698         0.34096
C         47.70665        28.80343        -0.01086
C         46.41475        29.52000         0.13637
C         47.63978        31.65260         0.54462
C         46.41568        30.94991         0.12284
C         47.62487        33.17668         0.61435
C         46.46896        33.81514        -0.12889
C         47.73754        35.93764        -0.11301
C         46.53533        35.19291        -0.34881
C         47.73414        37.35678        -0.25856
C         46.51232        38.07430        -0.46822
C         47.77887        40.24997        -0.45554
C         46.52170        39.52095        -0.56248
C         47.78033        41.66661        -0.51258
C         46.54447        42.40705        -0.74539
C         47.82385        44.56363        -0.87249
C         46.54224        43.77543        -0.77574
C         47.73444        45.99594        -0.39414
C         46.48259        46.69094        -0.45965
C         47.67831        48.81994         0.01765
C         46.45466        48.12636        -0.22648
C         47.66506        50.22874         0.23042
C         46.42121        50.90733         0.41108
C         47.62357        53.06070         0.60990
C         46.43539        52.30698         0.69841
C         47.55112        54.47905         0.76287
C         46.35666        55.14036         0.98314
C         50.17134        20.21401        -0.23670
C         48.92400        20.89498        -0.22572
C         50.16996        23.02555        -0.09784
C         48.92773        22.31204        -0.15417
C         50.17857        24.45777        -0.02057
C         48.94560        25.16983         0.04121
C         50.19814        27.31883         0.02804
C         48.98913        26.58504         0.04929
C         50.18763        28.77305         0.11667
C         48.98701        29.48126         0.17419
C         50.22023        31.65822         0.40829
C         48.96118        30.90659         0.52118
C         50.19225        33.08596         0.36852
C         48.96363        33.81985         0.30613
C         50.19906        35.95231         0.21804
C         48.96750        35.22127         0.13921
C         50.16544        37.36751         0.14654
C         48.96561        38.08696        -0.11437
C         50.20090        40.25190         0.00020
C         48.97752        39.52227        -0.18965
C         50.20604        41.67467        -0.02152
C         48.98549        42.39852        -0.27332
C         50.15530        44.54923         0.01117
C         49.00621        43.81796        -0.32364
C         50.17296        45.97322        -0.00666
C         48.92913        46.68908        -0.14281
C         50.14961        48.83089         0.07716
C         48.92458        48.11812         0.00754
C         50.14039        50.26383         0.14707
C         48.89679        50.95826         0.27148
C         50.11289        53.07238         0.33802
C         48.88258        52.37822         0.39122
C         51.36625        20.89889        -0.19230
C         52.64842        23.04813        -0.12372
C         51.40319        22.31771        -0.12488
C         52.63345        24.45281        -0.15008
C         51.40885        25.17839        -0.04982
C         52.66975        27.34469         0.03481
C         51.43081        26.61344        -0.00404
C         52.66139        28.77459         0.16651
C         51.43481        29.48976         0.22200
C         52.67508        31.63873         0.30969
C         51.42908        30.92830         0.31038
C         52.67042        33.06606         0.32634
C         51.43712        33.78995         0.32316
C         52.67886        35.90345         0.39489
C         51.44074        35.22403         0.33747
C         52.69124        37.35360         0.58941
C         51.38220        38.12129         0.46855
C         52.64570        40.27046         0.29424
C         51.43073        39.57599         0.22555
C         52.65751        41.68970         0.30460
C         51.41570        42.36771         0.22449
C         52.68606        44.58362         0.42902
C         51.36334        43.81907         0.41495
C         52.65367        46.02108         0.13888
C         51.40132        46.70173         0.09172
C         52.63204        48.84752        -0.03067
C         51.39598        48.12775         0.04060
C         52.62160        50.27615        -0.02554
C         51.36367        50.98806         0.10670
C         51.31363        52.39926         0.19340
C         55.10378        23.00748         0.05374
C         53.91057        22.35992         0.02936
C         55.20616        24.43468        -0.27264
C         53.88410        25.20699        -0.33746
C         55.14162        27.34196         0.03510
C         53.90729        26.65795        -0.07193
C         55.14271        28.76830         0.17745
C         53.90849        29.48181         0.22207
C         55.14320        31.61797         0.38298
C         53.90383        30.91098         0.30692
C         55.12788        33.04555         0.34396
C         53.92153        33.76793         0.29373
C         55.13045        35.95865         0.36693
C         53.92385        35.21769         0.30923
C         55.13914        37.38304         0.48330
C         53.95440        38.08595         0.47028
C         55.19920        40.27987         0.39416
C         53.93761        39.53055         0.05465
C         55.17628        41.70824         0.35149
C         53.91359        42.42154         0.31415
C         55.14062        44.55654         0.03972
C         53.92804        43.82040         0.24814
C         55.09560        45.95950        -0.11563
C         53.86854        46.70514        -0.03647
C         55.09972        48.86350        -0.25134
C         53.87376        48.14271        -0.13216
C         55.05190        50.27278        -0.25519
C         53.85037        50.95802        -0.14079
C         57.66687        24.51467         0.14717
C         56.43867        25.20255         0.01566
C         57.62714        27.33615         0.23658
C         56.39895        26.61567         0.07410
C         57.64135        28.76341         0.31293
C         56.38307        29.48499         0.28902
C         57.64164        31.59365         0.66856
C         56.37009        30.88530         0.41969
C         57.66724        33.11434         0.56894
C         56.39918        33.77182         0.16784
C         57.69634        35.99721         0.32682
C         56.41039        35.28115         0.14888
C         57.69251        37.39787         0.45759
C         56.41696        38.10991         0.83929
C         57.64365        40.29624         0.55851
C         56.40209        39.58685         0.50183
C         57.63651        41.72340         0.54749
C         56.38879        42.42372         0.42217
C         57.60715        44.54906         0.23039
C         56.40016        43.85743         0.20211
C         57.67516        45.91008        -0.27392
C         56.31486        46.68501        -0.45671
C         57.60082        48.77912        -0.40092
C         56.36401        48.15044        -0.37341
C         58.85542        25.20203         0.28491
C         60.08653        27.32837         0.41662
C         58.85896        26.61798         0.31374
C         60.09603        28.70173         0.44014
C         58.88405        29.44736         0.40111
C         60.08438        31.64257         0.40288
C         58.91922        30.89280         0.48841
C         60.09634        33.06033         0.33020
C         58.93805        33.81868         0.32034
C         60.11832        36.02472         0.18779
C         58.92018        35.27710         0.23200
C         60.10938        37.40901         0.27539
C         58.90540        38.12403         0.45871
C         60.06841        40.32144         0.71985
C         58.88861        39.58587         0.59607
C         60.05115        41.72377         0.80152
C         58.86427        42.43943         0.69357
C         60.08330        44.69616         0.64228
C         58.80676        43.94278         0.92149
C         60.09696        45.99274         0.26071
C         58.88655        46.71073        -0.08371
C         58.83299        48.07794        -0.27119
O         44.85034        35.41605        -2.15051
O         44.52437        52.30852         2.23537
O         51.96742        44.25770         1.67634
O         56.45481        34.47965        -1.10839
O         39.61378        46.23094         1.29017
O         47.63296        28.05604        -1.32100
O         27.25330        48.31378        -2.66168
O         45.88293        27.05074         1.58970
O         40.36387        36.46257        -2.47845
O         38.89489        39.00074        -2.41187
O         43.38875        39.82337         0.77047
O         28.86364        37.94325         1.62569
O         54.60657        24.80988        -1.55598
O         42.67069        23.58187         1.48010
O         44.17510        47.57247        -2.12121
O         48.20184        31.11262         1.80281
O         57.04520        46.10565        -1.57477
O         51.92353        37.77695         1.79450
O         57.58434        32.45941         1.86832
O         44.66078        44.24964        -2.34200
O         48.07518        44.67870        -2.32785
H         47.27925        45.09173        -2.72832
O         42.15161        46.74555         1.39265
H         41.34536        46.76462         1.96361
O         37.21204        18.65504        -2.22576
H         36.39771        19.19626        -2.30876
O         32.49743        24.45561        -2.03202
H         33.07966        23.72861        -2.37980
O         42.39453        49.34079        -2.18052
H         42.82048        48.65416        -2.74906
O         44.09107        29.30096        -1.96954
H         44.94892        29.68458        -2.25396
O         33.96930        26.74060        -2.19006
H         33.29687        26.05906        -2.45403
O         53.96526        39.42896        -1.43077
H         54.85683        39.11338        -1.69391
O         31.47662        39.38825        -2.40355
H         31.54861        40.29750        -2.76516
O         58.57418        44.10429         2.36863
H         57.74349        43.62975         2.58641
O         37.82140        41.46491         1.38521
H         37.83261        42.36696         1.77158
O         37.92172        33.25674         1.51433
H         37.12291        32.82497         1.88635
O         23.79456        42.06553        -1.68995
H         23.77014        41.08887        -1.77930
O         33.91219        22.12095        -2.02475
H         33.19461        21.46842        -2.17861
O         28.85362        30.89489        -1.56565
H         28.02110        30.39020        -1.68932
O         45.38722        41.57612        -2.63145
H         45.27187        42.50483        -2.95285
O         56.41295        38.07681         2.31459
H         57.23048        38.52388         2.62145
O         47.36185        33.52425         2.01433
H         47.80273        32.82771         2.55650
O         37.93931        48.85263        -2.21409
H         37.20652        49.41009        -2.55307
O         43.97735        21.25116        -2.31243
H         44.00775        20.37861        -2.76020
H         22.28732        26.97037         2.26079
H         22.23542        29.41200         2.01355
H         22.20412        31.29330         1.80202
H         22.18564        33.70516         1.60101
H         22.14996        35.58173         1.31110
H         22.12425        37.99435         1.07591
H         22.25976        39.95533         1.38438
H         22.15441        42.30926         0.79653
H         22.05847        44.11747         0.03634
H         22.09870        46.58250        -0.12129
H         25.59328        23.57358         1.85459
H         23.51940        24.83843         2.21834
H         25.29843        49.83116        -1.42079
H         23.29441        48.67994        -0.56754
H         27.18277        22.60832         1.47837
H         27.07358        50.83042        -1.55585
H         29.22520        21.38189         1.03725
H         29.09992        51.99540        -0.88806
H         32.89563        19.19110         0.72082
H         30.84698        20.44874         0.97978
H         32.75804        54.09172        -0.07391
H         30.68728        52.90292        -0.45423
H         34.65064        18.28892         0.84664
H         34.34733        54.99888         0.38975
H         36.69089        17.05422         0.29003
H         36.41052        56.18290         0.84486
H         40.23699        14.88065        -1.15724
H         38.08085        16.10752        -1.05488
H         40.14414        58.24755         1.75701
H         38.03091        57.09440         1.27304
H         42.70518        14.89664        -1.17249
H         42.59955        58.22594         1.99374
H         44.83216        16.11705        -1.04792
H         44.74917        57.04012         1.85472
H         48.54299        18.17810        -0.33105
H         46.43471        16.99988        -0.55170
H         48.46411        55.08050         0.66349
H         46.36602        56.23819         1.02669
H         50.19959        19.11813        -0.29708
H         50.13348        54.16724         0.41783
H         52.30123        20.32460        -0.22931
H         52.23996        52.98779         0.16304
H         56.00841        22.45165         0.33698
H         53.89968        21.28294         0.24565
H         55.97870        50.85363        -0.35267
H         53.87582        52.05558        -0.15035
H         57.68675        23.41802         0.09618
H         57.65346        49.87668        -0.41135
H         59.80847        24.65874         0.35201
H         61.02802        26.76361         0.47214
H         61.05634        29.22732         0.52148
H         61.05429        31.13501         0.31213
H         61.07405        33.54724         0.20993
H         61.08351        35.50998         0.08996
H         61.06716        37.94390         0.22558
H         61.03891        39.81062         0.77437
H         61.00628        42.24744         0.94156
H         61.03589        44.21029         0.89734
H         61.05307        46.53343         0.18513
H         59.75880        48.66686        -0.19436
