         576
 CSIRO Nanostructure Databank - Neutral Graphene Oxide Data Set
C          6.11719        19.24440         1.03331
C          6.09107        20.61317         0.76848
C          5.10842        21.53770         1.34236
C          5.99274        23.57041         0.15239
C          5.11999        22.88132         1.17367
C          6.85770        24.88050         0.55196
C          8.44400        14.89684         0.74713
C          8.43535        16.29825         0.59258
C          7.25901        17.04737         0.82786
C          8.38467        19.08120         0.05881
C          7.23014        18.44490         0.63070
C          8.29912        20.43740        -0.31633
C          7.12937        21.16442        -0.03416
C          8.30423        23.29906        -0.58928
C          7.02407        22.59048        -0.38878
C          8.22571        24.67503        -0.07435
C          7.12225        25.13486         2.00546
C          8.79250        27.07852         1.73654
C          7.98464        26.08680         2.46914
C          8.96405        28.27177         2.47066
C         10.88130        10.57103         1.45716
C         10.93874        12.07598         1.27807
C          9.64961        12.76255         0.91673
C         10.90570        14.85032         0.49290
C          9.64893        14.14346         0.69977
C         10.90678        16.27364         0.27106
C          9.66174        16.98687         0.25074
C         10.84535        19.05473        -0.40885
C          9.62954        18.36307        -0.06714
C         10.83219        20.45073        -0.71810
C          9.49676        21.12257        -0.95340
C         10.71587        23.32611        -0.82928
C          9.56534        22.53159        -0.36206
C         10.52973        24.77660        -0.80950
C          9.38822        25.40450        -0.04571
C         10.72249        27.48107         0.16835
C          9.57323        26.72245         0.56485
C         10.88028        28.85061         0.45800
C          9.56749        29.45574         1.99463
C         11.10257        31.38336         2.11006
C         10.08633        30.55110         2.68951
C         11.21015        32.69472         2.67241
C         13.41189         6.41624         1.50313
C         13.26996         7.75533         0.93198
C         12.03755         8.34461         1.17984
C         13.33335        10.61448        -0.08505
C         11.59631         9.65544         0.75272
C         13.33625        11.95765         0.27428
C         12.11019        12.68362         0.51475
C         13.38585        14.81728         0.32943
C         12.09905        14.08702         0.38425
C         13.39895        16.31800         0.29332
C         12.11112        17.00404         0.07655
C         13.31611        19.09942        -0.56131
C         12.09525        18.38002        -0.28734
C         13.28221        20.49849        -0.89302
C         12.01227        21.18048        -0.87840
C         13.18339        23.46408        -1.35950
C         12.06227        22.69332        -0.67704
C         13.00737        24.82502        -1.49584
C         11.74372        25.54648        -1.15781
C         13.17636        27.65330        -0.62457
C         11.83208        26.95984        -0.67286
C         13.34906        28.86623         0.21914
C         12.11979        29.54044         0.64891
C         13.51051        31.38666         1.48974
C         12.15120        30.81047         1.27231
C         13.68540        32.83139         1.45316
C         12.00685        33.72293         2.15037
C         13.57621        35.60925         2.39704
C         12.35019        34.98511         2.69734
C         13.65312        37.05998         2.59360
C         15.68014         6.09262         0.50261
C         14.49625         5.65090         1.31649
C         15.66272         7.60868         0.22922
C         14.46827         8.32098         0.30429
C         15.75613        10.44521         0.36459
C         14.54461         9.74985        -0.25672
C         15.78704        11.91123         0.00270
C         14.61078        12.64233         0.13097
C         15.73467        14.73075        -0.47257
C         14.62641        14.08226        -0.01501
C         15.66192        16.18528        -0.88843
C         14.72369        17.02861         0.00208
C         15.72416        19.08128        -0.95799
C         14.56276        18.41729        -0.58191
C         15.73405        20.52108        -1.10502
C         14.47037        21.21374        -1.17733
C         15.76242        23.34569        -1.46951
C         14.43669        22.62976        -1.75837
C         15.94876        24.60345        -1.93174
C         14.08926        25.74851        -1.84448
C         15.72833        27.39260        -0.77900
C         14.35777        26.92285        -1.17449
C         15.84812        28.60523         0.10298
C         14.61272        29.36070         0.45779
C         16.07477        31.36752         1.13947
C         14.78720        30.61047         1.20693
C         16.10963        32.67363         1.96820
C         14.84550        33.52080         1.80167
C         16.05119        35.72753         2.28680
C         14.78487        34.91276         2.05885
C         15.88318        37.06626         1.53483
C         14.68950        37.78014         2.12538
C         18.13445         5.61262         0.51884
C         16.94757         5.59043         1.18203
C         18.10696         7.61664        -0.56277
C         16.91043         8.28616        -0.16451
C         18.20462        10.41097        -0.16505
C         17.00279         9.70038        -0.02265
C         18.21765        11.84767        -0.13141
C         17.02482        12.56855        -0.22039
C         18.17545        14.83036        -0.19539
C         17.02093        13.98653        -0.75248
C         18.18521        16.19655        -0.83924
C         17.01184        16.86182        -0.97221
C         18.27351        19.06915        -0.99500
C         16.98255        18.33397        -1.18432
C         18.23589        20.50008        -0.52986
C         16.95805        21.20422        -0.96295
C         18.27101        23.27813        -1.25148
C         16.93792        22.69240        -0.76157
C         18.32005        24.71957        -1.64847
C         17.07100        25.46187        -1.61440
C         18.26437        27.52727        -1.10343
C         17.01205        26.78811        -1.25379
C         18.34883        28.79891        -0.51766
C         17.22567        29.24897         0.41474
C         18.56884        31.39085         0.95973
C         17.20380        30.75595         0.69015
C         18.50158        32.90158         1.03110
C         17.37529        33.49112         1.72836
C         18.46015        35.80003         1.35217
C         17.34740        35.01898         1.90663
C         18.36823        37.24565         1.34688
C         17.13861        37.87325         1.55731
C         20.59698         5.53536         0.32272
C         19.43524         5.19635         0.99210
C         20.58902         7.53363        -0.76689
C         19.34865         8.26820        -0.71149
C         20.62797        10.35457        -0.66787
C         19.42513         9.70241        -0.50340
C         20.80899        11.76970        -0.16154
C         19.51156        12.57459        -0.05619
C         20.76905        14.75824        -0.64523
C         19.52214        14.07295        -0.19676
C         20.76355        16.13619        -0.87657
C         19.48602        16.85326        -1.28232
C         20.77918        19.03215        -0.94723
C         19.51997        18.29550        -0.61826
C         20.73483        20.46876        -1.08052
C         19.54231        21.18067        -0.91889
C         20.80373        23.35602        -1.29478
C         19.56837        22.67244        -0.73953
C         20.77347        24.71278        -1.58253
C         19.55850        25.48032        -1.59805
C         20.63959        27.71729        -1.94588
C         19.48590        26.85827        -1.52118
C         20.72694        28.99518        -1.13897
C         19.61746        29.52599        -0.49503
C         20.85208        31.63860        -0.05079
C         19.70894        30.88497         0.08215
C         21.00603        33.02085         0.47851
C         19.73655        33.67502         1.07079
C         20.84659        35.90517         0.77745
C         19.67550        35.15514         1.06075
C         20.79925        37.33981         0.94889
C         19.57282        37.98212         1.21837
C         23.06077         6.04951         0.26528
C         21.94911         5.31839         0.71831
C         23.06932         7.41192        -0.27456
C         21.84187         8.12275        -0.59792
C         23.10382        10.32402        -0.62593
C         21.86833         9.57001        -1.05289
C         23.16502        11.74354        -1.08632
C         21.90214        12.53668        -0.90257
C         23.16476        14.66549        -1.18881
C         21.97469        14.01987        -0.83290
C         23.20313        16.10162        -1.22420
C         21.98577        16.83592        -1.06868
C         23.21750        18.95960        -1.28464
C         21.98512        18.28599        -1.09984
C         23.24976        20.43694        -1.16046
C         21.99356        21.20299        -1.20957
C         23.31236        23.29531        -1.52465
C         22.04603        22.60047        -1.29850
C         23.31372        24.77604        -1.48332
C         22.01152        25.50415        -1.54503
C         23.27301        27.65620        -1.98446
C         21.96728        26.93024        -2.00944
C         23.23387        29.14407        -1.81811
C         21.94866        29.79208        -1.33894
C         23.25034        31.91810        -0.97526
C         22.15474        31.00254        -0.46124
C         23.23195        33.32337        -0.67598
C         22.08726        33.88973        -0.01038
C         23.20533        36.09190         0.04611
C         22.05855        35.28511         0.29595
C         23.18935        37.50291         0.37321
C         21.97882        38.09617         0.82170
C         25.53745         6.07443         0.40232
C         24.33138         5.44471         0.56567
C         25.56842         7.46524         0.00526
C         24.31604         8.09718        -0.28830
C         25.64564        10.30172        -0.55658
C         24.36863         9.57386        -0.40302
C         25.63045        11.71553        -0.88343
C         24.45902        12.43257        -1.07789
C         25.70222        14.61019        -1.65947
C         24.40496        13.87361        -1.45759
C         25.71522        16.13484        -1.86058
C         24.41444        16.82012        -1.45635
C         25.69674        18.92358        -1.75862
C         24.40757        18.22281        -1.48177
C         25.76061        20.40802        -1.85128
C         24.54133        21.18078        -1.45418
C         25.77549        23.32573        -2.08789
C         24.50055        22.62411        -1.72781
C         25.82733        24.82146        -1.94178
C         24.55822        25.54529        -1.69088
C         25.77922        27.65271        -1.48862
C         24.52566        26.90589        -1.68856
C         25.75502        29.14385        -1.49923
C         24.48286        29.88323        -1.60791
C         25.66489        32.05591        -1.68156
C         24.43703        31.26990        -1.39571
C         25.62490        33.54356        -1.43168
C         24.38538        34.12538        -0.87962
C         25.55626        36.30048        -0.69303
C         24.41081        35.51116        -0.49607
C         25.52609        37.80074        -0.53416
C         24.32311        38.29133         0.20221
C         28.07101         6.07512         0.73025
C         26.77427         5.36571         0.81843
C         28.06792         7.48620         0.21505
C         26.78679         8.19344        -0.02841
C         28.08466        10.36272        -0.11289
C         26.83879         9.60372        -0.29775
C         28.08945        11.72586        -0.33056
C         26.94202        12.40923        -0.96935
C         28.08316        14.72971        -0.72728
C         26.97737        13.89857        -1.26803
C         28.06393        16.10231        -0.78256
C         26.91398        16.84581        -1.26089
C         28.04741        19.03129        -0.80764
C         26.92461        18.21157        -1.33245
C         28.10872        20.48866        -1.07853
C         27.03985        21.13889        -1.59684
C         28.34695        23.33351        -1.71142
C         27.10470        22.53777        -2.18691
C         28.30993        24.81468        -1.54642
C         27.10669        25.53684        -1.69065
C         28.25724        27.70909        -1.39261
C         27.07765        26.95136        -1.57444
C         28.29635        29.11713        -1.45370
C         27.04229        29.84679        -1.75839
C         28.21341        32.03518        -1.23409
C         26.99650        31.33892        -1.74973
C         28.14473        33.53306        -1.09997
C         26.89376        34.26821        -1.32458
C         28.03062        36.21543        -0.27519
C         26.86760        35.76984        -1.22374
C         27.99423        37.69264         0.05511
C         26.81418        38.36761         0.03263
C         30.51630         6.10227         0.97948
C         29.39116         5.39123         0.68884
C         30.35200         7.55209         1.40529
C         29.32365         8.25534         0.50268
C         30.43236        10.45483         0.70246
C         29.28141         9.73199         0.42972
C         30.49110        11.87164         0.48172
C         29.21778        12.55170         0.14208
C         30.45830        14.82489         0.32974
C         29.18840        14.03896        -0.01179
C         30.62451        16.12637        -0.44786
C         29.35648        16.85320        -0.71069
C         30.62239        19.08058        -0.39875
C         29.33612        18.33153        -0.50825
C         30.60697        20.48134        -0.41990
C         29.28509        21.22329        -0.46527
C         30.57839        23.42409        -0.32800
C         29.47120        22.62745        -1.00688
C         30.69600        24.81681        -0.89579
C         29.51121        25.49454        -1.21135
C         30.75808        27.65544        -1.46881
C         29.50023        26.98755        -0.94815
C         30.74703        29.15250        -1.21803
C         29.52247        29.84842        -1.33668
C         30.69291        32.01640        -1.11745
C         29.52690        31.31501        -1.28552
C         30.73298        33.50712        -1.12767
C         29.44063        34.28460        -1.17501
C         30.61758        36.43826        -0.31669
C         29.38250        35.73664        -0.80114
C         30.43484        37.66120         0.50737
C         29.20850        38.27712         0.58969
C         32.96782         6.19238         1.25477
C         31.82714         5.48709         1.01862
C         32.97222         7.62984         1.41423
C         31.66822         8.33396         1.51393
C         32.96406        10.50695         1.00344
C         31.67279         9.80774         1.19942
C         32.96476        11.87355         0.73878
C         31.70046        12.55137         0.53333
C         33.01111        14.75609         0.45028
C         31.73416        13.99686         0.23960
C         32.89970        16.25560         0.71174
C         31.95139        16.88656        -0.31206
C         33.00690        19.08586         0.17498
C         31.81942        18.38264        -0.11281
C         33.02653        20.49916         0.05940
C         31.82587        21.21459        -0.23930
C         33.10889        23.33632        -0.30501
C         31.87116        22.64042        -0.32725
C         33.14363        24.77200        -0.53127
C         31.95023        25.50078        -0.80286
C         33.13049        27.65665        -0.68477
C         31.98274        26.92942        -0.95972
C         33.12507        29.08508        -0.68122
C         31.96209        29.82369        -0.95889
C         33.06570        32.01370        -0.24027
C         32.04741        31.32706        -1.14155
C         33.07811        33.37244        -0.06598
C         31.97843        34.21227        -0.62486
C         32.94508        36.17106         0.72858
C         31.91489        35.66306        -0.21033
C         32.77771        37.50334         1.25562
C         31.60714        38.20231         1.15192
C         34.14357         8.34581         1.43385
C         35.39595        10.46951         1.33907
C         34.19715         9.79288         1.30012
C         35.51937        11.88562         0.83888
C         34.20662        12.63625         0.85020
C         35.39284        14.77704         1.31872
C         34.20307        14.00601         0.89408
C         35.39443        16.27453         1.23933
C         34.21611        16.99688         0.70293
C         35.29904        19.15416         1.25918
C         34.20943        18.35604         0.58781
C         35.38524        20.57420         0.77926
C         34.26284        21.23154         0.25027
C         35.66127        23.29693        -0.17851
C         34.30926        22.62789        -0.04419
C         35.57876        24.80476        -0.11303
C         34.40723        25.46114        -0.42695
C         35.71108        27.71415        -0.47066
C         34.42480        26.93779        -0.61740
C         35.60048        29.11255        -0.01829
C         34.28648        29.74800        -0.04247
C         35.44316        31.91921         0.67149
C         34.19339        31.22198         0.29838
C         35.34170        33.32267         0.92135
C         34.17629        34.02560         0.64327
C         34.04073        35.40140         1.04493
C         36.68566        12.67229         1.38386
C         37.84425        14.81935         1.77888
C         36.68332        14.05110         1.46614
C         37.87498        16.24258         1.73944
C         36.72833        16.97080         1.06402
C         37.73352        19.13972         1.79736
C         36.64454        18.45325         1.37652
C         37.73197        20.62923         1.84798
C         36.52214        21.36412         1.25872
C         37.90468        23.37159         0.98193
C         36.71207        22.72229         0.75612
C         38.04331        24.76711         0.49913
C         36.76203        25.58698         0.42148
C         38.06927        27.69706         0.55184
C         37.03171        26.95036        -0.27617
C         37.91035        29.07487         0.81757
C         36.69669        29.77992         0.56594
C         36.59577        31.18183         0.88894
C         38.98001        16.96448         2.15276
C         40.21382        19.20129         2.22248
C         38.92598        18.44556         2.42409
C         40.23923        20.56120         2.04229
C         39.02269        21.32878         1.80935
C         40.32848        23.41927         1.65103
C         39.07017        22.68886         1.51541
C         40.40551        24.77924         1.46165
C         39.30766        25.53565         0.83691
C         39.17820        26.99048         1.00203
C         41.48522        21.30500         2.11898
C         41.51125        22.65739         2.00828
O         22.66626        25.30621        -0.24225
O         29.79733         7.53941         2.74052
O         12.13978        10.05578        -0.50729
O         36.73222        21.23413         2.73651
O         35.13219        15.63582         2.52670
O         39.01851        24.99765        -0.52924
O         31.60427         9.30592         2.59484
O         19.64347        13.44500         1.13431
O         12.21049        27.91031        -1.72334
O         31.75321        34.01722        -2.05916
O         14.99603        25.21081        -2.75654
O         28.40953        18.67896         0.59323
O         13.48905        15.61453         1.58795
O         29.52567        22.80977        -2.43434
O         28.67272        13.43089         1.24578
O         22.34097        29.87324        -2.74277
O         29.41767        35.32960        -2.19850
O         12.60421        33.50096         0.87108
O         17.76487        18.86316        -2.32419
O         20.48500         6.14988        -0.93838
O         18.31448        23.60744        -2.64534
O         31.66328        36.58110        -1.31979
O         15.77503        27.26577         0.73201
O         17.80916        34.15462         2.98940
O         27.37014        12.92965        -2.29300
O         29.10288         7.65679        -0.81983
O         24.15351        20.87609        -0.06497
O         30.16688        16.27337        -1.81890
O         14.21737        30.65766         2.55121
O         27.13997        30.61722        -3.00766
O         35.18886        27.41048        -1.81673
O         25.67608        24.18494        -3.28127
O         23.54155        10.16440         0.73472
O         22.68762        27.16981        -3.25200
O         25.70937        19.61592        -3.06904
O         32.58336        14.33656        -0.89582
O          7.46008        22.97605        -1.74652
O         25.45789        32.95103        -2.80828
O         18.09078         6.22773        -0.77059
O         33.83221        30.22026         1.31139
O         28.01749        32.62287         0.09860
O         25.01390        14.01902        -2.79989
O         22.27793        12.04008        -2.21487
O         25.76122        28.42605        -0.19948
O         20.80527        33.12027         1.92810
O          9.69768        29.58295         0.59362
O         19.51613        16.89511        -2.64554
O         10.70569        25.39827        -2.18224
O         32.57922        31.48457        -2.49806
H         32.47819        32.44300        -2.72985
O         14.75819         9.66089        -1.69156
H         13.99149         9.18671        -2.07801
O         25.40418        38.37170        -1.89081
H         26.01240        37.84131        -2.46741
O         30.29956        15.26655         1.69299
H         29.75277        14.59042         2.16008
O         32.64799        16.79212        -1.57889
H         31.96765        16.67918        -2.28243
O         18.89883        30.97135         2.32709
H         18.72201        29.99953         2.37883
O         29.54055        27.12485         0.50176
H         28.77342        26.64846         0.88245
O         18.22436        20.48838         0.94155
H         18.29694        21.43605         1.22560
O         27.86427        35.51219         0.98225
H         27.00437        35.77407         1.37394
O         32.42282        16.46962         2.05371
H         33.16339        16.25256         2.66680
O         36.14487        22.96540        -1.53295
H         35.52120        23.36322        -2.17707
O         21.31275        11.58410         1.19083
H         20.92993        12.30595         1.74430
O         22.67174        30.43181         0.79570
H         22.54428        31.09671         1.50712
O         19.59550        22.92978         0.70902
H         20.49770        22.71951         1.03314
O         14.33630        22.44345        -3.19241
H         14.44744        23.32548        -3.61284
O         15.57749        10.35827         1.80640
H         16.31440        10.84511         2.23184
O         15.54382         5.44722        -0.79339
H         16.39865         5.58409        -1.26699
O          9.67257        22.34134         1.10829
H          9.56242        23.22598         1.52168
O         37.60789        26.75873        -1.56870
H         36.87026        26.74206        -2.22211
O         34.83197        19.25324         2.65796
H         35.40039        19.93889         3.09207
O         36.98216        16.89266        -0.37212
H         37.87085        17.26651        -0.54834
O         30.24251        23.64683         1.07500
H         29.86853        22.80211         1.43015
O         15.40714        17.24379         1.25641
H         15.09220        16.54354         1.87723
O         25.84494        16.36826        -3.28474
H         25.33056        15.66217        -3.74130
O         20.30076        28.11944        -3.30006
H         21.10755        28.55511        -3.66987
O          6.45694        24.33802         2.88366
H          6.71203        24.56682         3.79998
O         16.86562        22.96253         0.67006
H         16.03344        22.56966         1.00956
O         38.67631        18.52989         3.87750
H         37.83734        18.05441         4.06025
O         19.47988        17.99949         0.80245
H         19.17916        18.82562         1.25608
O         27.37487         5.93899         2.03205
H         29.01304         6.94785         2.76117
O         17.81449        15.07696         1.18404
H         18.48302        15.68155         1.57133
O         15.09643        16.20007        -2.22811
H         15.81162        15.95361        -2.85469
O         21.94945         9.49874        -2.51249
H         21.09063         9.17225        -2.85340
O         17.62954        28.68797         1.70811
H         17.21064        27.79327         1.76715
O          9.33633        21.17752        -2.38152
H          8.54828        21.74117        -2.57446
O         30.76069        27.49156        -2.91534
H         31.53886        27.96578        -3.27722
O         28.88048        21.36711         0.94052
H         28.71460        20.44666         1.27173
O          5.11976        23.97997        -0.91089
H          5.64614        23.94074        -1.74192
O         27.06142        36.37652        -2.53972
H         27.92023        36.03767        -2.89751
O         27.29921        22.26270        -3.58888
H         26.99775        23.05411        -4.09137
O         11.20862        12.51608         2.67489
H         11.29694        13.49455         2.66536
O         17.21235        13.89653        -2.18911
H         16.52034        13.30840        -2.55745
O         36.40427        25.93818         1.79358
H         36.14502        25.11948         2.26762
O         15.60188        36.69430         0.14917
H         15.46593        37.51795        -0.36424
O         16.16186        32.23383         3.34082
H         17.05072        31.83680         3.48318
O         35.83623        11.71412        -0.60355
H         35.01069        11.43673        -1.05578
O         16.14097        36.04251         3.69078
H         16.56905        35.27089         4.12718
O         12.40131        22.80271         0.77506
H         11.63901        22.39323         1.25493
H          5.29731        18.77347         1.59570
H          4.35934        21.09729         2.01931
H          4.33994        23.48565         1.66041
H          6.34534        25.77202         0.11656
H          7.50080        14.37680         0.97173
H          6.35908        16.53152         1.19460
H          7.97226        26.23926         3.56185
H          8.60008        28.28149         3.50961
H         10.45531        10.25131         2.42022
H          8.69698        12.25208         1.12082
H          9.73076        30.79393         3.70205
H         10.59415        32.92059         3.55562
H         12.56061         6.02766         2.08322
H         11.35901         7.79762         1.85420
H         11.64162        35.50515         3.36013
H         12.77417        37.56117         3.02722
H         14.52692         4.63207         1.73054
H         14.69183        38.87898         2.18829
H         16.88090         5.14603         2.18512
H         17.09342        38.96716         1.66745
H         19.49747         4.70297         1.97158
H         19.54567        39.07816         1.30198
H         22.15308         4.47564         1.39836
H         21.94808        39.18120         0.99794
H         24.32389         4.41378         0.95206
H         24.27385        39.36228         0.45111
H         26.74649         4.25571         0.82292
H         26.79657        39.42853         0.32989
H         29.44241         4.31552         0.46152
H         29.12777        39.24237         1.11376
H         33.93785         5.67323         1.26294
H         31.88366         4.40235         0.84273
H         33.61759        37.93620         1.81910
H         31.52018        39.18857         1.63129
H         35.10114         7.80207         1.42555
H         36.32386         9.91330         1.54380
H         36.19795        33.84949         1.36840
H         34.83001        35.82942         1.68154
H         37.63398        12.12934         1.52167
H         38.76117        14.28612         2.07504
H         38.73013        29.61322         1.31812
H         37.49609        31.69024         1.26568
H         39.83324        16.42010         2.58942
H         41.15668        18.66816         2.41914
H         41.35119        25.30296         1.67156
H         39.93910        27.50891         1.60664
H         42.40836        20.74684         2.33293
H         42.46030        23.20307         2.11626
