         470
 CSIRO Nanostructure Databank - Neutral Graphene Oxide Data Set
C         37.86461        50.43695        -2.74294
C         36.63518        51.09118        -2.82532
C         37.62745        53.05771        -1.84304
C         36.51361        52.40429        -2.36848
C         40.28113        48.87032        -2.01704
C         40.33066        50.36101        -2.22646
C         38.98798        51.06910        -2.18812
C         40.02634        53.11803        -1.13480
C         38.87039        52.40890        -1.76120
C         40.18117        54.56790        -1.26365
C         42.67426        48.85148        -1.47691
C         41.41612        48.18321        -1.74581
C         42.62524        50.26898        -1.21653
C         41.42139        50.96418        -1.37280
C         42.56985        53.09558        -0.66449
C         41.32502        52.34511        -0.89793
C         42.54119        54.49161        -0.54591
C         41.33441        55.19839        -0.90452
C         45.12534        46.01154        -1.47093
C         43.97355        46.71806        -1.56224
C         45.07413        48.84936        -0.95195
C         43.90168        48.15386        -1.35892
C         45.02388        50.22028        -0.59178
C         43.80703        50.95005        -0.73438
C         44.98461        53.04401        -0.15440
C         43.78619        52.35679        -0.52372
C         44.97735        54.47305        -0.02977
C         43.76763        55.20598        -0.23204
C         45.00061        57.29880         0.10132
C         43.80599        56.61131        -0.13208
C         47.67286        44.47779        -1.03211
C         47.61692        45.89556        -0.84336
C         46.42838        46.67209        -1.28742
C         47.50858        48.77534        -0.22985
C         46.37978        48.16187        -0.96094
C         47.40565        50.11265         0.14720
C         46.20738        50.89259        -0.11450
C         47.33993        53.01994         0.60882
C         46.16046        52.28230         0.10957
C         47.40820        54.47349         0.40900
C         46.20123        55.19370         0.21645
C         47.51218        57.38923         0.35886
C         46.20800        56.61831         0.26843
C         47.48495        58.59856         1.25762
C         49.95162        44.30941        -0.13904
C         48.78693        43.72770        -0.72868
C         49.84296        45.74546         0.21584
C         48.70575        46.55906        -0.28132
C         49.90326        48.62503         0.37355
C         48.71108        47.98399        -0.01782
C         49.87529        50.03733         0.78388
C         48.56558        50.76952         0.78817
C         49.89755        52.97662         0.74436
C         48.60605        52.26630         0.90184
C         49.88096        54.35635         0.65098
C         48.65412        55.13700         0.60796
C         49.94796        57.22876         0.98290
C         48.71028        56.53734         0.69113
C         49.93259        58.59942         1.43071
C         48.64500        59.18144         1.68044
C         52.38729        41.45553         0.10390
C         51.22685        42.15377        -0.04943
C         52.37377        44.26586         0.53553
C         51.13842        43.59088         0.07585
C         52.39694        45.75831         0.78298
C         51.10360        46.48291         0.64668
C         52.38040        48.60087         0.56778
C         51.15416        47.93874         0.47296
C         52.39138        50.05208         0.81776
C         51.13237        50.81134         0.76528
C         52.40203        52.88640         0.60789
C         51.13743        52.19814         0.71315
C         52.41525        54.35318         0.46441
C         51.13288        55.12072         0.48502
C         52.45434        57.29975         0.78186
C         51.15316        56.54543         0.83633
C         52.42527        58.62038         1.50928
C         51.18187        59.26066         1.76065
C         52.43537        61.15751         2.65302
C         51.22348        60.54689         2.35564
C         55.16959        40.00590         0.17527
C         54.91624        41.37826         0.61529
C         53.70378        42.12533         0.13465
C         54.88474        44.37436         0.74068
C         53.69461        43.62014         0.27940
C         54.89633        45.77470         0.70245
C         53.66066        46.50217         0.60512
C         54.89739        48.60940         0.30209
C         53.64502        47.90122         0.53201
C         54.92134        50.05629         0.22465
C         53.70981        50.78564         0.67923
C         54.86239        52.97408         0.37891
C         53.62717        52.24231         0.51573
C         54.91523        54.31237         0.71028
C         53.64567        55.01124         0.98106
C         54.94237        57.17114         1.30542
C         53.64236        56.47190         1.22611
C         54.93347        58.52021         1.62900
C         53.66192        59.23127         1.83175
C         54.96707        61.20058         2.78114
C         53.66587        60.53188         2.38421
C         54.96050        62.69317         2.57613
C         57.41562        40.06565         1.14752
C         56.31424        39.36516         0.58171
C         57.42370        41.48099         1.18177
C         56.11342        42.16383         1.15020
C         57.39204        44.44620         1.24462
C         56.07759        43.66475         1.18430
C         57.38719        45.83020         0.74565
C         56.15525        46.49754         0.60577
C         57.30153        48.49578        -0.37857
C         56.09548        47.87981         0.19552
C         57.28345        50.10513        -0.53183
C         56.06800        50.77308        -0.05859
C         57.36951        52.95197         0.23641
C         56.07353        52.28679        -0.18597
C         57.37386        54.33354         0.58088
C         56.15003        55.04635         0.79065
C         57.40462        57.12753         1.20353
C         56.15698        56.42624         1.12245
C         57.41480        58.53402         1.50093
C         56.19081        59.21672         1.77965
C         57.41518        61.31257         2.12779
C         56.20204        60.57088         2.17262
C         57.39170        62.73654         2.25811
C         56.10599        63.38821         2.39399
C         59.74005        37.23767         0.91416
C         58.66809        37.88435         1.38898
C         59.89985        40.09540         1.27949
C         58.64045        39.36319         1.68176
C         59.89778        41.47259         1.12775
C         58.64773        42.19580         1.22098
C         59.95349        44.38339         0.88804
C         58.67922        43.67227         1.28044
C         59.88767        45.78863         0.38751
C         58.62937        46.46667         0.36507
C         59.75699        48.24167        -0.82110
C         58.56697        47.73751        -0.27254
C         59.70737        50.38313        -0.99723
C         58.54517        50.90202        -0.49752
C         59.82495        52.97017         0.13395
C         58.57525        52.27363         0.00876
C         59.83577        54.31364         0.50463
C         58.61459        55.03239         0.70060
C         59.86121        57.19733         0.86388
C         58.60875        56.43066         0.96731
C         59.89100        58.59992         1.28304
C         58.65489        59.24882         1.56663
C         59.87846        61.37291         1.82233
C         58.64894        60.64536         1.83742
C         59.83921        62.78057         2.03910
C         58.60538        63.47243         2.15613
C         59.70030        65.63779         1.72448
C         58.58619        64.91043         1.98933
C         62.29633        35.73814         0.15005
C         62.28050        37.20357         0.29142
C         61.01230        37.94772         0.63456
C         62.37777        40.03619         0.86256
C         61.16374        39.29295         1.35517
C         62.36581        41.39554         0.66707
C         61.14567        42.18544         0.81626
C         62.39548        44.30732         0.36545
C         61.14012        43.54845         0.59404
C         62.27584        45.60122        -0.42606
C         61.07894        46.44167        -0.01172
C         62.24703        48.64169        -0.58186
C         61.04664        47.79010        -0.48354
C         62.25251        50.02888        -0.61302
C         61.06485        50.91821        -0.78731
C         62.42065        52.84972         0.21982
C         61.11303        52.31891        -0.24466
C         62.41359        54.18173         0.86269
C         61.12024        54.95449         0.89409
C         62.41078        57.17759         1.15961
C         61.18245        56.44512         0.82713
C         62.39196        58.56691         1.23556
C         61.12619        59.28747         1.34642
C         62.36863        61.41849         1.60313
C         61.12057        60.68863         1.60475
C         62.34412        62.80835         1.74641
C         61.10134        63.52027         2.05636
C         62.20268        65.71822         1.19302
C         61.04368        65.06682         1.86325
C         62.12466        67.05939         0.73074
C         64.75315        35.70089         0.16019
C         63.45680        35.04656         0.10448
C         64.80384        37.10265         0.41890
C         63.57947        37.87932         0.54983
C         64.86883        39.98199         0.86118
C         63.59283        39.25194         0.72548
C         64.89978        41.39704         0.48687
C         63.59853        42.04176         0.06464
C         64.88449        44.24633        -0.23878
C         63.65881        43.54772         0.26220
C         64.87608        45.73434        -0.23123
C         63.58705        46.40350        -0.55098
C         64.79700        48.65239        -0.07305
C         63.56614        47.90757        -0.59266
C         64.84091        50.06714        -0.63536
C         63.54149        50.81401        -0.66342
C         64.87758        52.92635        -0.01219
C         63.58700        52.23378        -0.16967
C         64.92960        54.28673         0.40097
C         63.71697        54.92925         0.97721
C         64.92456        57.20598         1.03964
C         63.68483        56.42929         1.21518
C         64.91151        58.57850         1.20232
C         63.64248        59.31017         1.33029
C         64.91380        61.42269         1.80841
C         63.62043        60.69288         1.46815
C         64.88091        62.92841         1.49420
C         63.55500        63.64030         1.56160
C         64.43841        65.56453         0.15657
C         63.37435        64.99457         0.98704
C         64.40239        67.00000        -0.17104
C         63.21601        67.68746         0.13236
C         67.10048        32.81252        -0.32484
C         65.96857        33.54324        -0.36104
C         67.19703        35.64938        -0.05558
C         65.95551        34.97334        -0.04504
C         67.24091        37.04297         0.11181
C         66.06365        37.75168         0.43019
C         67.39521        39.92703         0.40162
C         66.16458        39.18689         0.74283
C         67.34978        41.35356         0.42411
C         66.11678        42.05661         0.33327
C         67.48071        44.23665        -0.14374
C         66.15904        43.47550        -0.13626
C         67.30349        45.70887         0.25680
C         66.06218        46.44840        -0.10250
C         67.34383        48.57572        -0.03018
C         66.11158        47.88592        -0.13098
C         67.40596        50.04425        -0.26647
C         66.13930        50.82095        -0.53131
C         67.34535        52.97866        -0.29698
C         66.11157        52.27602        -0.26763
C         67.33262        54.42146        -0.15721
C         66.13519        55.02233         0.33324
C         67.45269        57.21444         0.76280
C         66.17044        56.41539         0.87701
C         67.38095        58.68515         0.85629
C         66.16017        59.33670         1.14502
C         67.32728        61.48316         1.06851
C         66.14105        60.74558         1.25027
C         67.27157        62.91861         0.75307
C         65.99914        63.55612         0.77050
C         66.95376        65.52777        -0.52270
C         65.76933        64.78104         0.02416
C         66.93414        67.04954        -0.46692
C         65.56362        67.67284        -0.71443
C         66.74321        69.72794        -1.42105
C         65.53866        68.97827        -1.15809
C         69.64526        31.27793        -0.22960
C         69.66342        32.67492        -0.12334
C         68.38206        33.43143         0.19184
C         69.71225        35.59294         0.23548
C         68.47247        34.87196        -0.33717
C         69.79129        37.03469        -0.24769
C         68.49877        37.78950        -0.14533
C         69.80234        39.95692        -0.40502
C         68.54852        39.24036         0.04351
C         69.88891        41.34910         0.19597
C         68.62784        42.07597         0.52180
C         69.89236        44.28188         0.34151
C         68.58927        43.58191         0.71010
C         69.86697        45.69250         0.28933
C         68.59994        46.46481         0.41863
C         69.83109        48.62412         0.16431
C         68.58780        47.91460         0.13817
C         69.86828        50.06600         0.22423
C         68.63696        50.81497         0.02837
C         69.76779        52.85083        -0.77439
C         68.58264        52.19020        -0.26720
C         69.58565        54.86004        -1.23748
C         68.48214        55.29723        -0.44600
C         69.72281        57.44290        -0.26245
C         68.57010        56.62953         0.00323
C         69.79700        58.78227         0.23898
C         68.58253        59.41955         0.73500
C         69.81823        61.65441         1.00632
C         68.55592        60.81310         0.89988
C         69.66086        62.80337         0.00658
C         68.37626        63.51564         0.13827
C         69.53686        65.65103        -0.62752
C         68.27755        64.84510        -0.49221
C         69.41348        67.09889        -1.03330
C         68.02994        67.63110        -1.39505
C         69.28532        69.90339        -1.58851
C         67.97286        69.14404        -1.43968
C         69.12755        71.25047        -2.24037
C         72.03261        31.22424        -0.58009
C         70.81465        30.55120        -0.46023
C         72.07549        32.60878        -0.45153
C         70.90628        33.36342        -0.20758
C         72.16108        35.52589        -0.05870
C         70.98401        34.81794        -0.05523
C         72.21369        36.95769         0.02468
C         71.08809        37.74638        -0.09015
C         72.26259        39.93893        -0.12607
C         71.10234        39.19593        -0.15253
C         72.28369        41.37367        -0.16888
C         71.13782        42.12097        -0.02790
C         72.25042        44.32898        -0.25910
C         71.08904        43.57874         0.04096
C         72.24435        45.71094        -0.21486
C         71.05677        46.41906         0.07362
C         72.27506        48.52089         0.42614
C         71.05368        47.87158         0.20501
C         72.30979        49.89735         0.61308
C         71.13573        50.64656         0.51424
C         72.16431        53.49194        -0.96663
C         71.07538        52.77271        -0.36854
C         72.02575        54.74435        -1.51869
C         70.81997        55.51927        -1.32600
C         72.03679        57.68311        -1.05753
C         70.87395        56.89232        -0.90395
C         72.09008        58.96753        -0.54586
C         70.98273        59.52743         0.12297
C         72.29628        61.68764         0.42084
C         71.13852        60.82836         0.89429
C         72.19467        62.89530        -0.15671
C         70.89070        63.50006        -0.52609
C         71.86876        65.65569        -1.40162
C         70.80588        64.93974        -0.88056
C         71.74584        66.99616        -1.84544
C         70.55929        67.72944        -1.72891
C         71.27921        69.63996        -3.14054
C         70.38610        69.05966        -2.21259
C         71.10678        70.92920        -3.61290
C         70.01000        71.72620        -3.15836
O         71.32239        52.00869         0.79556
O         64.23967        50.41363        -1.90345
O         49.06159        50.16516         2.02419
O         69.09988        37.37719        -1.49036
O         47.75541        52.70490         2.00837
O         64.50520        63.69382         2.71125
O         64.71291        64.66784        -0.99864
O         67.45679        64.89201        -1.72878
O         53.23216        50.36381         1.99737
O         53.43676        55.55137         2.34373
O         63.87687        55.46206         2.32657
O         60.57252        56.94123        -0.41176
O         61.45990        37.90553        -0.74230
O         61.63374        54.30751         2.10261
O         65.47597        43.63528        -1.44928
O         69.77347        62.23475         2.28423
O         51.87174        54.84381        -0.79747
O         46.75101        47.67225        -2.31063
O         61.28536        64.48047         3.16472
O         63.74356        47.15510        -1.81522
O         70.06293        62.60642        -1.37946
O         66.98693        50.40690        -1.64948
O         59.57303        44.22746         2.31018
O         56.59707        44.21769         2.44433
O         67.76476        46.09844         1.57702
O         63.28490        44.16425         1.54147
O         40.32960        52.56674         0.18537
O         69.48629        53.63241        -1.91799
O         53.90468        43.00213        -1.04106
O         50.11980        46.05445         1.62886
O         61.24311        52.06284        -1.70318
O         67.10412        56.52594         2.01103
O         69.65454        66.74609         0.35262
O         59.65798        49.24654        -1.78942
O         65.63565        39.59057         2.04776
O         57.07521        49.19350        -1.63692
O         55.13373        41.56676         2.05780
O         52.37188        44.80857         1.89527
O         69.46031        41.43488         1.58947
O         61.81768        45.19963        -1.69687
O         55.08569        60.99377         4.23521
H         55.92284        61.41414         4.52598
O         61.37814        38.97293         2.76618
H         60.50512        39.02796         3.22532
O         64.56153        48.88004         1.35838
H         64.79657        48.06492         1.85203
O         40.80084        50.56569        -3.61695
H         41.61214        50.02568        -3.73348
O         67.79811        67.20380        -2.75783
H         66.86273        67.38868        -2.98479
O         55.97905        52.52879        -1.63578
H         56.71998        52.05262        -2.06982
O         67.98237        44.22564        -1.49666
H         67.20163        44.23230        -2.09947
O         47.75854        57.90561        -1.00989
H         47.78905        57.13253        -1.61289
O         58.58362        39.46144         3.15782
H         58.34957        40.38804         3.38589
O         69.71376        70.15768        -0.19950
H         70.60663        70.56198        -0.23493
O         69.59587        35.73724         1.67144
H         69.27274        34.87875         2.04058
O         65.03802        61.26892         3.24910
H         64.78661        62.13376         3.65466
O         68.28924        43.77442         2.10170
H         68.82349        43.12060         2.60512
O         63.47601        41.81205        -1.36910
H         64.13973        42.38604        -1.82455
O         67.23016        67.37997         0.90861
H         67.52338        68.31501         0.94992
O         69.68573        40.11979        -1.84775
H         69.56603        39.21430        -2.22126
O         68.26052        33.46282         1.64925
H         68.23530        32.53664         1.96904
O         71.46655        60.42473         2.23932
H         70.94474        61.06252         2.80774
O         52.71282        57.59668        -0.62994
H         51.92080        58.04300        -0.99692
O         68.63277        34.74094        -1.76402
H         68.69591        35.65317        -2.13601
H         37.94704        49.41229        -3.13086
H         35.76729        50.57303        -3.25589
H         37.52832        54.09130        -1.48265
H         35.54743        52.92409        -2.42493
H         39.34321        48.32255        -2.18489
H         39.35868        55.15301        -1.70016
H         41.36882        47.08720        -1.67988
H         41.37241        56.29266        -0.99363
H         45.08456        44.91452        -1.52541
H         43.03954        46.16700        -1.73655
H         44.98455        58.39718         0.13632
H         42.88701        57.19879        -0.25611
H         46.81497        43.97012        -1.49349
H         46.51859        59.05708         1.51323
H         48.77999        42.65463        -0.96445
H         48.58547        60.11897         2.25258
H         52.36180        40.35701         0.14691
H         50.29087        41.58724        -0.16040
H         52.41823        62.14667         3.13075
H         50.29084        61.07495         2.59524
H         54.41727        39.48407        -0.43210
H         54.01577        63.24331         2.69024
H         56.43182        38.29546         0.35707
H         56.05161        64.48410         2.34221
H         59.68012        36.15630         0.71833
H         57.76098        37.31481         1.64018
H         59.59293        66.68696         1.41605
H         57.61478        65.41782         1.92502
H         61.34004        35.20638         0.04706
H         61.22240        67.65300         0.92609
H         63.41936        33.95452        -0.00837
H         63.13295        68.75678        -0.10654
H         67.06523        31.74660        -0.59320
H         65.03127        33.06204        -0.67528
H         66.63172        70.81249        -1.56402
H         64.58392        69.51580        -1.24747
H         68.69578        30.73202        -0.13387
H         68.31184        71.89811        -1.88814
H         72.95773        30.66263        -0.76931
H         70.77285        29.45702        -0.54772
H         73.04582        33.11550        -0.54089
H         73.12543        35.00547        -0.14917
H         73.20638        37.42289         0.10577
H         73.23496        39.42871        -0.06254
H         73.26591        41.85951        -0.25223
H         73.18043        43.81135        -0.52891
H         73.17125        46.25101        -0.44790
H         73.20628        47.94710         0.50751
H         73.25097        50.41054         0.84626
H         73.17469        53.07141        -0.85356
H         72.93863        55.26029        -1.85169
H         72.91260        57.27026        -1.57591
H         73.01063        59.55727        -0.65740
H         73.29932        61.32604         0.69798
H         73.10640        63.47701        -0.36253
H         72.83544        65.15518        -1.55616
H         72.62849        67.46449        -2.30412
H         72.10666        69.03327        -3.53619
H         71.80182        71.34158        -4.35629
H         69.88303        72.73744        -3.57131
