         430
 CSIRO Nanostructure Databank - Neutral Graphene Oxide Data Set
C         27.98762        27.38856         0.57780
C         27.98077        28.80823         0.41800
C         26.76705        29.51572         0.26592
C         27.98280        31.61428         0.05213
C         26.77891        30.88934         0.06853
C         27.94087        33.08327        -0.30011
C         26.79052        33.84864         0.31198
C         27.98226        35.94759        -0.08351
C         26.80424        35.20121         0.32017
C         27.97372        37.32923        -0.29353
C         26.78667        38.11336        -0.28629
C         28.02296        40.20338        -0.70325
C         26.81061        39.47320        -0.54297
C         28.02393        41.65569        -0.83598
C         26.81206        42.39246        -0.97693
C         28.05687        44.46219        -1.23510
C         26.82980        43.74976        -1.21183
C         28.10432        45.85585        -1.52466
C         30.42791        27.37297         0.61218
C         29.16782        26.69758         0.66107
C         30.44506        28.78948         0.50992
C         29.21692        29.51491         0.39097
C         30.46967        31.64490         0.18292
C         29.21662        30.93753         0.21524
C         30.47273        33.08782         0.04783
C         29.24084        33.81181        -0.06032
C         30.47467        35.93564        -0.12685
C         29.23551        35.20574        -0.13486
C         30.49361        37.33475        -0.30473
C         29.23616        38.00405        -0.78110
C         30.49083        40.18182        -0.58562
C         29.25754        39.50702        -0.63041
C         30.56019        41.62845        -0.98799
C         29.24613        42.34959        -0.85698
C         30.50760        44.48068        -0.86754
C         29.27175        43.76015        -0.99217
C         30.51441        45.86051        -1.14012
C         29.30418        46.52140        -1.52110
C         32.89263        24.54350         0.53857
C         31.70342        25.22937         0.59025
C         32.90710        27.36142         0.67111
C         31.67119        26.65135         0.62935
C         32.89647        28.78761         0.70636
C         31.69465        29.49489         0.54947
C         32.93195        31.62457         0.32820
C         31.69421        30.94106         0.37598
C         32.97219        33.05732        -0.13302
C         31.68461        33.79858         0.08781
C         32.90829        35.95375         0.18425
C         31.69877        35.22459         0.05378
C         32.91393        37.35575         0.07618
C         31.69750        38.05603        -0.20178
C         32.92079        40.22167        -0.13243
C         31.71289        39.49626        -0.33680
C         32.91529        41.66965        -0.10908
C         31.73977        42.38370        -0.42205
C         32.85293        44.55764         0.00472
C         31.71693        43.80176        -0.42654
C         32.75465        46.01865        -0.09998
C         31.71015        46.62266        -0.86557
C         32.83707        48.79491        -0.77824
C         31.80110        47.99270        -1.21936
C         35.41414        23.08517         0.28645
C         35.38922        24.49448         0.41427
C         34.14268        25.22590         0.52705
C         35.40839        27.34539         0.58182
C         34.15021        26.63567         0.62231
C         35.42885        28.77178         0.66513
C         34.17158        29.52664         1.03237
C         35.37023        31.65893         0.51143
C         34.16755        30.96006         0.54494
C         35.39366        33.11077         0.45289
C         34.19485        33.79265         0.32225
C         35.41304        35.97483         0.46334
C         34.12553        35.23940         0.70186
C         35.38503        37.37965         0.32190
C         34.14868        38.09335         0.18406
C         35.37237        40.23325         0.27762
C         34.14224        39.50890         0.10464
C         35.34696        41.67101         0.34155
C         34.11632        42.39813         0.19864
C         35.32948        44.49745         0.54441
C         34.06925        43.83571         0.30706
C         35.45699        45.84584         0.97846
C         33.62332        46.93759         0.54446
C         34.85358        49.13192         0.66740
C         33.75398        48.30267         0.18401
C         35.29284        50.32892         0.14785
C         37.85121        23.06710         0.27427
C         36.60657        22.39403         0.19923
C         37.85008        24.46964         0.37972
C         36.62854        25.19371         0.43070
C         37.87137        27.35807         0.38529
C         36.62940        26.63875         0.48398
C         37.86176        28.78263         0.36502
C         36.62507        29.46650         0.55654
C         37.80529        31.66786         0.15992
C         36.65334        30.94451         0.85651
C         37.88061        33.08680         0.70101
C         36.62468        33.84308         0.65449
C         37.87554        36.00124         0.49140
C         36.64036        35.26616         0.57231
C         37.85991        37.38143         0.34519
C         36.61572        38.10988         0.32676
C         37.87744        40.21351         0.74101
C         36.59270        39.51733         0.37112
C         37.86943        41.68510         0.44917
C         36.59080        42.37566         0.44901
C         37.82078        44.52724         0.55001
C         36.55762        43.77258         0.46634
C         37.75698        45.94982         0.06892
C         36.62002        46.61675         0.78864
C         37.82698        48.76688         0.67638
C         36.70627        47.97923         1.07317
C         37.75658        50.22088         0.68562
C         36.57785        50.90794         0.43892
C         40.32299        20.21298         0.03209
C         39.14056        20.91591         0.19694
C         40.33801        23.03882         0.06284
C         39.11557        22.32940         0.19888
C         40.36694        24.47456         0.11751
C         39.14848        25.19119         0.64388
C         40.31127        27.35304         0.09690
C         39.10680        26.65746         0.30321
C         40.31191        28.78338         0.04421
C         39.09711        29.50918         0.21832
C         40.31517        31.64767        -0.01936
C         39.11789        30.93032         0.19948
C         40.33765        33.08391        -0.00384
C         39.20290        33.81651         0.57859
C         40.18980        35.92849        -0.41913
C         39.24236        35.33740         0.63860
C         40.30061        37.42044        -0.21162
C         39.11169        38.11803         0.13942
C         40.32720        40.23457         0.02052
C         39.11989        39.51115         0.24560
C         40.33309        41.66081         0.09545
C         39.08031        42.34862         0.33751
C         40.33349        44.55260         0.04256
C         39.12430        43.81057         0.45293
C         40.27372        46.00002         0.00760
C         39.06324        46.69051         0.17485
C         40.21118        48.91825        -0.12772
C         39.01171        48.10720         0.28279
C         40.24404        50.27805         0.52596
C         39.04064        50.92669         0.83111
C         40.27453        52.90484         1.54550
C         39.07600        52.25311         1.34853
C         42.77182        20.19420        -0.36401
C         41.54633        20.89652        -0.15753
C         42.78799        23.02245        -0.31827
C         41.55665        22.32129        -0.14191
C         42.78273        24.45818        -0.35755
C         41.53929        25.17371        -0.13450
C         42.71102        27.33387        -0.41312
C         41.54674        26.63314        -0.12359
C         42.73498        28.76804        -0.43968
C         41.52886        29.48877        -0.19491
C         42.73990        31.59064        -0.55160
C         41.53631        30.91221        -0.25582
C         42.68578        33.03932        -0.81016
C         41.48730        33.80430        -0.42776
C         42.73852        35.94434        -0.62273
C         41.51499        35.21016        -0.47349
C         42.74882        37.37790        -0.59511
C         41.50914        38.10577        -0.39682
C         42.73042        40.27746        -0.51664
C         41.53303        39.53860        -0.29465
C         42.73005        41.67435        -0.44911
C         41.52382        42.38946        -0.15403
C         42.72885        44.59625        -0.63413
C         41.50196        43.84473        -0.17346
C         42.75595        46.03972        -0.18101
C         41.50878        46.76383        -0.08108
C         42.76771        48.92743        -0.20990
C         41.49856        48.14523        -0.01087
C         42.73827        50.28799         0.45120
C         41.49761        50.93293         0.72806
C         42.75195        52.92778         1.44369
C         41.50698        52.26640         1.24585
C         43.95111        20.87368        -0.53901
C         45.23639        23.02332        -0.64598
C         43.99812        22.30301        -0.51479
C         45.22767        24.45245        -0.61826
C         43.98365        25.14935        -0.54727
C         45.20662        27.36793        -0.63893
C         43.93566        26.60795        -0.90113
C         45.20194        28.72770        -0.73839
C         43.95080        29.47084        -0.68246
C         45.23713        31.61635        -0.72188
C         43.96243        30.89013        -0.69429
C         45.24729        33.07134        -0.68939
C         44.00044        33.80675        -0.92125
C         45.20659        35.95286        -0.61723
C         43.97781        35.25584        -0.69559
C         45.19469        37.37582        -0.66841
C         43.97933        38.07393        -0.70229
C         45.24753        40.24647        -0.40035
C         44.00085        39.56861        -0.94728
C         45.24687        41.65238        -0.33145
C         44.01337        42.40021        -0.81403
C         45.18670        44.51095        -0.24630
C         44.01446        43.85130        -0.39034
C         45.19928        45.92843         0.17949
C         43.95154        46.71269         0.03875
C         45.19924        48.83902         0.33281
C         44.00208        48.13602         0.14788
C         45.20587        50.25302         0.42079
C         43.95802        50.95980         0.65421
C         43.93961        52.29813         1.15383
C         47.67170        23.07173        -0.79371
C         46.48846        22.36603        -0.78470
C         47.68891        24.48677        -0.63030
C         46.46580        25.16755        -0.60110
C         47.73031        27.37353        -0.50079
C         46.44699        26.62743        -0.22666
C         47.73684        28.74982        -0.62398
C         46.47903        29.46946        -1.04856
C         47.73245        31.69029        -0.84515
C         46.43495        30.92887        -0.71323
C         47.64982        33.00249        -0.07525
C         46.41939        33.79119        -0.46231
C         47.67857        35.92359        -0.32060
C         46.44159        35.21458        -0.49512
C         47.71209        37.34796        -0.43192
C         46.49162        38.11754        -0.88419
C         47.68408        40.24008        -0.24396
C         46.46533        39.54060        -0.35715
C         47.68656        41.64614        -0.20492
C         46.46780        42.34736        -0.22512
C         47.73842        44.55078        -0.21294
C         46.47550        43.81135        -0.59949
C         47.74789        45.94194        -0.00479
C         46.49618        46.64615         0.34763
C         47.62405        48.81603        -0.31456
C         46.54248        48.15248         0.54691
C         47.61731        50.30255        -0.03672
C         46.47133        50.94140         0.31697
C         50.18005        24.53973        -0.35031
C         48.95179        25.21617        -0.45383
C         50.19106        27.34981        -0.26356
C         48.96074        26.63841        -0.38758
C         50.18442        28.78158        -0.25063
C         48.96525        29.49063        -0.47756
C         50.16045        31.61477        -0.19324
C         48.96576        30.90410        -0.44595
C         50.13942        33.07515        -0.07601
C         48.93964        33.77658        -0.13322
C         50.09383        35.92445         0.19204
C         48.89375        35.20832        -0.08209
C         50.07931        37.35208         0.16998
C         48.89721        38.04447        -0.20765
C         50.20279        40.23875         0.03799
C         48.98618        39.51684        -0.53045
C         50.20844        41.65970        -0.10292
C         48.96319        42.37425        -0.58044
C         50.18093        44.54713        -0.13934
C         48.95449        43.84614        -0.23396
C         50.20063        45.97254        -0.12989
C         48.96755        46.68425        -0.06417
C         50.18555        48.78020        -0.22594
C         48.96158        48.11222        -0.13327
C         51.37736        25.22709        -0.17853
C         52.65444        27.36540         0.08240
C         51.41730        26.63364        -0.12831
C         52.64314        28.77667         0.10420
C         51.40411        29.50409        -0.08348
C         52.68480        31.68903        -0.10809
C         51.38509        30.91519        -0.06215
C         52.55561        33.08347         0.45707
C         51.36311        33.77230         0.26713
C         52.42802        35.92389         0.90948
C         51.30213        35.20328         0.46368
C         52.24585        37.29307         1.17315
C         51.22975        38.08537         0.60558
C         52.60999        40.26202         0.77198
C         51.31516        39.53039         0.52159
C         52.63171        41.73313         0.45925
C         51.37747        42.40632         0.08037
C         52.66230        44.52378        -0.12330
C         51.41340        43.82152        -0.07649
C         52.67431        45.93547        -0.31105
C         51.44252        46.67745        -0.23252
C         51.39983        48.08765        -0.25863
C         55.04352        27.35360         0.58889
C         53.88267        26.67440         0.30998
C         55.05610        28.77517         0.64402
C         53.85617        29.49818         0.37657
C         55.06077        31.60272         0.73574
C         53.87570        30.91974         0.41199
C         55.05825        33.05652         0.86249
C         53.75548        33.73621         1.00087
C         55.04255        35.98307         1.02775
C         53.73645        35.27933         1.21152
C         55.14365        37.41473         0.71544
C         54.13258        38.31252         1.10873
C         55.04917        40.19710        -0.06230
C         53.94054        39.59042         0.59368
C         55.04271        41.62165        -0.30066
C         53.89264        42.38777         0.02593
C         55.21205        44.49719        -0.20226
C         53.88564        43.78429        -0.13889
C         55.09456        45.90082        -0.71465
C         53.91848        46.57267        -0.67690
C         56.24584        29.48430         0.95402
C         56.24401        30.85902         1.01236
C         56.21273        33.80218         0.97878
C         56.19855        35.22215         1.00879
C         56.18330        38.00227        -0.04909
C         56.16372        39.35917        -0.35478
C         56.16917        42.30924        -0.89439
C         56.24439        43.66356        -0.91612
O         45.83023        46.03776         1.52857
O         43.24323        33.39376        -2.12032
O         34.36952        46.43962         1.62802
O         38.59222        44.30874         1.76402
O         53.62734        34.35671         2.32994
O         35.63386        48.59875         1.72622
O         38.74595        33.25247         1.86403
O         44.12383        42.42359        -2.26438
O         53.17305        37.87803         2.03118
O         52.60845        41.24658         1.86056
O         48.98300        42.38108        -2.04464
H         48.13978        42.82516        -2.32857
O         33.09745        32.98078        -1.61725
H         32.33967        32.44808        -1.94237
O         42.85388        49.20059        -1.66004
H         41.95968        49.52108        -1.93250
O         49.16285        39.55956        -1.98120
H         48.33641        39.18391        -2.37893
O         30.82098        41.58775        -2.45205
H         30.17900        40.95691        -2.84311
O         42.62415        44.63469        -2.09814
H         43.10867        43.81180        -2.42974
O         34.22610        29.63127         2.51105
H         33.39637        30.06683         2.80307
O         33.94663        35.23193         2.18416
H         34.06698        36.15610         2.49253
O         46.92969        48.38082         1.92153
H         46.46226        47.70171         2.45975
O         52.96151        31.89415        -1.54844
H         52.99126        31.00742        -1.96727
O         47.87963        31.99344        -2.25910
H         47.74465        31.14651        -2.74586
O         55.68892        44.62168         1.19715
H         55.66337        43.72152         1.58773
O         46.55661        29.46934        -2.54053
H         45.72517        29.87414        -2.87157
O         39.77043        35.69834         1.93250
H         39.37764        35.07205         2.58225
O         27.72034        33.11336        -1.75834
H         27.74738        34.05485        -2.03375
O         44.12885        39.73599        -2.40102
H         44.12520        40.73989        -2.55772
O         37.42540        31.76002        -1.24156
H         38.16704        32.16065        -1.74200
O         37.92747        40.12421         2.21757
H         38.68753        40.66714         2.51832
O         43.81350        26.60595        -2.38216
H         43.73160        27.54110        -2.66788
O         46.49810        43.76980        -2.07647
H         45.64875        43.28051        -2.34191
O         39.53505        35.69897        -1.70472
H         40.11564        36.05944        -2.40788
O         39.31023        25.15654         2.11719
H         38.53808        25.62204         2.50436
O         29.22825        37.79587        -2.25208
H         28.38010        38.16219        -2.58312
O         46.61126        38.29278        -2.34324
H         45.79975        38.79834        -2.62365
O         40.05091        49.17907        -1.58661
H         40.04259        48.30399        -2.03305
O         36.82885        31.06122         2.29136
H         36.06322        30.60009         2.70962
O         47.47199        32.62735         1.32628
H         47.47823        33.44673         1.86392
O         47.23829        48.60887        -1.70027
H         47.89099        49.05816        -2.27606
O         37.42321        45.87567        -1.35538
H         37.40779        46.78884        -1.71136
O         46.35785        26.61804         1.25368
H         47.12739        26.10922         1.58832
H         27.02756        26.85386         0.61602
H         25.81577        28.96476         0.27485
H         25.82735        31.41256        -0.09817
H         25.89137        33.31094         0.64584
H         25.92155        35.75232         0.67642
H         25.82041        37.63499        -0.07369
H         25.85366        40.01164        -0.54453
H         25.84577        41.87160        -0.95547
H         25.88988        44.29474        -1.38064
H         27.17093        46.39025        -1.75254
H         29.13544        25.60592         0.77255
H         29.31669        47.59667        -1.74203
H         32.86241        23.44741         0.49280
H         30.76678        24.65723         0.57656
H         32.89848        49.84018        -1.11057
H         31.04679        48.43093        -1.88518
H         34.47744        22.51447         0.24694
H         34.64223        50.88917        -0.54076
H         36.57254        21.30279         0.08477
H         36.65844        51.99362         0.26787
H         40.31459        19.11351         0.03489
H         38.20980        20.34883         0.33111
H         40.28727        53.92820         1.94785
H         38.13370        52.75626         1.60684
H         42.75872        19.09470        -0.38007
H         42.75234        53.95396         1.83896
H         44.87480        20.30061        -0.69575
H         44.88601        52.82686         1.33105
H         48.61413        22.51645        -0.88873
H         46.52987        21.27149        -0.86364
H         48.53277        50.89328        -0.18941
H         46.49437        52.03261         0.45357
H         50.21403        23.44324        -0.39225
H         50.21323        49.87734        -0.28441
H         52.30124        24.64092        -0.08961
H         52.33142        48.66657        -0.31776
H         55.97596        26.80341         0.78040
H         53.90606        25.57725         0.28422
H         56.01279        46.41181        -1.04107
H         53.89423        47.62400        -0.99894
H         57.16674        28.92074         1.16167
H         57.16880        31.38554         1.28287
H         57.19412        33.31081         0.93224
H         57.16799        35.73632         0.94143
H         57.02913        37.38981        -0.39239
H         57.02551        39.78210        -0.88862
H         56.97502        41.71489        -1.34861
H         57.11899        44.16526        -1.35623
