         424
 CSIRO Nanostructure Databank - Neutral Graphene Oxide Data Set
C          1.18305         3.41087         0.61754
C          0.06236         4.02094         0.16793
C          1.11710         6.23100        -0.01889
C         -0.01157         5.45488        -0.03513
C          1.14512         7.67429        -0.25919
C         -0.04069         8.38330        -0.46793
C          1.14221        10.50031        -0.68864
C         -0.04082         9.76868        -0.68921
C          1.12292        11.97211        -1.04295
C         -0.03998        12.72559        -0.44544
C          1.19367        14.83556        -0.61947
C         -0.01113        14.07066        -0.34098
C          1.19281        16.25352        -0.68464
C         -0.03745        17.00837        -0.57343
C          1.13881        19.16361        -0.64172
C         -0.05242        18.37051        -0.49880
C          1.12940        20.54752        -0.55642
C         -0.06556        21.32411        -0.36359
C          1.14650        23.47464        -0.29222
C         -0.06594        22.69150        -0.31602
C          1.11754        24.85924        -0.07296
C         -0.07663        25.66897        -0.20764
C          1.09186        27.72557         0.64310
C         -0.09305        27.00095         0.04624
C          1.11794        29.23388         0.34086
C         -0.07878        30.00289         0.85536
C          1.22337        32.08242         0.66234
C         -0.00776        31.34410         0.96411
C          1.20862        33.52924         0.51671
C          0.01265        34.28300         0.58127
C          1.23771        36.37987         0.38445
C          0.02382        35.66925         0.50681
C          1.27524        37.81523         0.35241
C          3.69707         3.53821         0.99853
C          2.36903         4.24989         1.03202
C          3.67712         6.28487         0.14762
C          2.40495         5.52704         0.21288
C          3.64122         7.74458        -0.10107
C          2.38875         8.40165        -0.28280
C          3.61663        10.53185        -0.59276
C          2.37613         9.81847        -0.49718
C          3.62862        11.98484        -0.72504
C          2.42874        12.68980        -0.77767
C          3.65428        14.84290        -0.72220
C          2.42344        14.12300        -0.73402
C          3.64423        16.27107        -0.75327
C          2.41671        16.96151        -0.80996
C          3.66347        19.15083        -0.69357
C          2.39501        18.44556        -1.11277
C          3.63659        20.50442        -0.50491
C          2.40052        21.30372        -0.87706
C          3.59819        23.41604        -0.30651
C          2.40684        22.75107        -0.40579
C          3.65718        24.85464         0.00392
C          2.36858        25.59778         0.18368
C          3.59971        27.78182         0.21994
C          2.37941        27.07077         0.21249
C          3.64091        29.15493         0.47024
C          2.39811        29.89320         0.90513
C          3.66744        32.04337         0.29548
C          2.41417        31.37913         0.57007
C          3.67098        33.49601         0.18417
C          2.44094        34.21979         0.33345
C          3.69407        36.35661         0.20401
C          2.45854        35.64890         0.29671
C          3.71334        37.79116         0.18824
C          2.45968        38.49365         0.25847
C          6.14739         3.57606         1.08235
C          4.88605         4.23075         0.96476
C          6.16366         6.35611         0.41931
C          4.86955         5.74723         0.90731
C          6.13962         7.74606        -0.04941
C          4.85526         8.44009        -0.21081
C          6.07409        10.53982        -0.85958
C          4.82571         9.83088        -0.52312
C          6.11714        12.00532        -0.74860
C          4.88259        12.70389        -0.70197
C          6.13723        14.82766        -0.68567
C          4.89115        14.12558        -0.70758
C          6.13358        16.26411        -0.64967
C          4.90367        16.98791        -0.69493
C          6.14628        19.09809        -0.49278
C          4.90625        18.40053        -0.60692
C          6.16467        20.51881        -0.33834
C          4.88358        21.20267        -0.14339
C          6.16173        23.41247        -0.32030
C          4.88938        22.71519        -0.12818
C          6.17280        24.86037        -0.76888
C          4.86087        25.61569        -0.46879
C          6.14600        27.79841        -0.13095
C          4.84851        27.09560        -0.24365
C          6.15969        29.15871         0.15281
C          4.93803        29.87584         0.69184
C          6.10814        31.97959        -0.11807
C          4.85696        31.32110         0.24151
C          6.12954        33.50195        -0.20496
C          4.87482        34.20927         0.05700
C          6.16026        36.33098         0.06595
C          4.91453        35.63566         0.12296
C          6.16956        37.76255         0.05110
C          4.93673        38.46673         0.10099
C          8.60495         3.62297         1.15191
C          7.36686         4.27878         0.99578
C          8.63335         6.47795         0.63481
C          7.34236         5.69135         0.63104
C          8.61275         7.59623        -0.40127
C          7.32399         8.37526        -0.35377
C          8.62013        10.55055        -0.64195
C          7.37131         9.78091        -0.79998
C          8.61152        11.94306        -0.69385
C          7.35721        12.68094        -0.73140
C          8.61355        14.82242        -0.58479
C          7.36449        14.11006        -0.67086
C          8.60905        16.24051        -0.51576
C          7.37060        16.96291        -0.55666
C          8.60899        19.10565        -0.36336
C          7.37619        18.38532        -0.49202
C          8.61178        20.52855        -0.28823
C          7.36014        21.24845        -0.28467
C          8.62318        23.44531        -0.38833
C          7.33990        22.70019        -0.29603
C          8.60295        24.91094        -0.11579
C          7.39654        25.61445        -0.27481
C          8.61858        27.70410        -0.01004
C          7.38658        27.03205        -0.17790
C          8.64787        29.17426        -0.28174
C          7.38300        29.88797         0.09605
C          8.61997        32.02538         0.06796
C          7.39652        31.28599         0.07734
C          8.62056        33.46330         0.07492
C          7.40931        34.19391         0.00094
C          8.63684        36.32145         0.08425
C          7.40164        35.61219         0.06658
C          8.63116        37.75153        -0.01998
C          7.41065        38.44639        -0.03187
C         11.07762         3.56382         1.01844
C          9.86086         4.26826         0.93145
C         11.09500         6.28897         0.27840
C          9.88925         5.65173         0.54709
C         11.15531         7.68305        -0.32287
C          9.85386         8.44792        -0.29964
C         11.14660        10.51640        -0.79528
C          9.85127         9.80236        -0.48464
C         11.09453        12.00717        -0.59280
C          9.87008        12.68006        -0.60869
C         11.08316        14.83867        -0.50233
C          9.85229        14.11585        -0.55145
C         11.06365        16.25487        -0.45249
C          9.84562        16.95089        -0.42367
C         11.03290        19.09811        -0.02997
C          9.84046        18.39777        -0.30392
C         11.02788        20.49257         0.10678
C          9.84070        21.20756        -0.10665
C         11.12740        23.36294         0.25475
C          9.89915        22.67799        -0.21948
C         11.01368        24.80506         0.58580
C          9.79609        25.57924         0.23861
C         11.03415        27.74470         0.52260
C          9.82088        27.00218         0.24758
C         11.06900        29.16194         0.42938
C          9.87740        29.89326         0.18668
C         11.09239        32.02389         0.30763
C          9.86052        31.30385         0.19106
C         11.07859        33.45508         0.28391
C          9.86123        34.18112         0.20094
C         11.10886        36.34453         0.23845
C          9.87479        35.61809         0.17377
C         11.10347        37.76701        -0.08487
C          9.88246        38.41958        -0.19564
C         13.55622         3.52927         0.94475
C         12.32125         4.21795         0.82641
C         13.57669         6.32846         0.42395
C         12.32814         5.61185         0.49051
C         13.58857         7.73050         0.27277
C         12.28001         8.47667         0.33817
C         13.56141        10.56800        -0.18761
C         12.36117         9.88347        -0.17313
C         13.57359        12.00060        -0.39711
C         12.33494        12.71410        -0.50012
C         13.58254        14.84412        -0.40929
C         12.33827        14.13434        -0.47887
C         13.60417        16.27422        -0.35878
C         12.33676        17.05348        -0.59964
C         13.55366        19.16701        -0.07011
C         12.31434        18.34265         0.21951
C         13.54343        20.52666         0.14311
C         12.26795        21.17013         0.64237
C         13.56189        23.35783         0.96133
C         12.27275        22.67757         0.50942
C         13.57290        24.85335         0.72134
C         12.28505        25.54223         0.91028
C         13.58486        27.76731         0.82267
C         12.24345        27.03597         0.92948
C         13.55028        29.20314         0.52662
C         12.32181        29.88617         0.49709
C         13.56143        32.02842         0.39475
C         12.31574        31.31667         0.40218
C         13.55403        33.46011         0.36481
C         12.31109        34.16243         0.36353
C         13.56913        36.20501         0.64547
C         12.30440        35.58325         0.44485
C         13.54394        38.30674         0.00323
C         12.30017        38.51251        -0.51887
C         16.02390         3.49930         0.88904
C         14.79437         4.19401         0.79868
C         16.03713         6.32181         0.53603
C         14.81205         5.62169         0.57847
C         16.04915         7.74608         0.33117
C         14.80767         8.44762         0.20197
C         16.03720        10.56067        -0.11021
C         14.81218         9.86502         0.01352
C         16.04362        11.98397        -0.27914
C         14.80368        12.69827        -0.36087
C         16.05656        14.83555        -0.37621
C         14.80975        14.12985        -0.38738
C         16.05826        16.26714        -0.27756
C         14.80022        16.97426        -0.23849
C         15.99150        19.13820        -0.24608
C         14.80957        18.44034        -0.21953
C         15.96738        20.62555        -0.51795
C         14.75552        21.31721         0.07612
C         16.00999        23.43266         0.21702
C         14.78939        22.65934         0.39619
C         15.99383        24.81803         0.26586
C         14.76047        25.55388         0.50740
C         16.00588        27.73248         0.36549
C         14.79865        26.99923         0.52144
C         16.00094        29.16501         0.45508
C         14.79582        29.89466         0.44864
C         16.03226        32.05700         0.33845
C         14.78965        31.33426         0.40125
C         16.02803        33.47683         0.22380
C         14.77974        34.17400         0.25025
C         15.97264        36.34763        -0.21528
C         14.77342        35.59727         0.32474
C         15.99290        37.88292        -0.18990
C         14.88123        38.70036        -0.38701
C         18.50378         3.47949         0.85694
C         17.25772         4.17496         0.79222
C         18.51206         6.28237         0.57369
C         17.27636         5.60220         0.64552
C         18.56966         7.79148         0.60086
C         17.26466         8.46215         0.24651
C         18.52732        10.55422        -0.20152
C         17.27370         9.84378        -0.01749
C         18.50137        11.96350        -0.40243
C         17.28260        12.68091        -0.38245
C         18.51564        14.84735        -0.48984
C         17.28218        14.12761        -0.43940
C         18.50647        16.27892        -0.40925
C         17.27639        16.96975        -0.26277
C         18.51816        19.17607        -0.35415
C         17.28272        18.43780         0.08427
C         18.49440        20.60392        -0.34644
C         17.26690        21.32528        -0.22484
C         18.50554        23.41916        -0.02797
C         17.26848        22.71298        -0.03160
C         18.50715        24.89242         0.32190
C         17.23368        25.57654        -0.16819
C         18.46913        27.76027         0.07128
C         17.24799        27.05081         0.17626
C         18.50994        29.17579         0.20473
C         17.29160        29.88954         0.71913
C         18.48082        32.06537         0.30213
C         17.26000        31.35647         0.37308
C         18.47477        33.49355         0.32999
C         17.26499        34.20728         0.25437
C         18.48073        36.35189         0.06944
C         17.27295        35.65370         0.14152
C         18.47599        37.78294        -0.18164
C         17.28013        38.48295        -0.32939
C         19.69978         4.15903         0.76018
C         20.97614         6.30747         0.48777
C         19.72206         5.57351         0.61534
C         21.00694         7.60697         0.12202
C         19.72858         8.33344        -0.23784
C         20.97813        10.59657        -0.16834
C         19.75896         9.85211        -0.16893
C         20.99681        11.94517        -0.37674
C         19.76274        12.65985        -0.85398
C         20.93423        14.88761        -0.67603
C         19.75628        14.15533        -0.61930
C         20.92804        16.29292        -0.61626
C         19.73919        17.00926        -0.50326
C         20.91059        19.21952        -0.75059
C         19.71643        18.47666        -0.53282
C         20.91823        20.59444        -0.67442
C         19.72381        21.32406        -0.43762
C         20.93277        23.52014        -0.38098
C         19.71425        22.75301        -0.27589
C         20.93537        24.88941        -0.35459
C         19.74022        25.64110        -0.14559
C         20.88168        27.81855        -0.47621
C         19.70530        27.03880        -0.20069
C         20.88010        29.18013        -0.39755
C         19.69810        29.91383        -0.01927
C         20.90458        32.11306        -0.14417
C         19.71520        31.33878         0.10367
C         20.93999        33.46194         0.00916
C         19.77543        34.21145         0.60346
C         20.91517        36.41496         0.21841
C         19.74774        35.68515         0.25548
C         20.90757        37.81691        -0.04080
C         19.72736        38.48138        -0.24281
O         12.93040        27.51499         2.12886
O          4.56799        26.51227        -1.59157
O          3.25443         5.45719        -0.98552
O          9.45431        23.12646        -1.56164
O          4.82873        21.93887         1.13583
O          6.08057        32.67069        -1.42265
O          3.18914        25.11721         1.37027
O          6.70497        10.02184        -2.10014
O         11.44791        24.99519         2.00375
O         13.57901        37.49585         1.16031
O         17.26793        25.50944        -1.62833
H         16.43975        25.90575        -1.97067
O         11.50036         7.51632        -1.73372
H         10.72948         7.05580        -2.14411
O          5.14045        29.91296         2.15150
H          4.24117        30.02580         2.55504
O          2.37571        29.83735         2.36903
H          1.96546        28.96760         2.61668
O         19.96206        34.16268         2.06633
H         19.94436        33.21710         2.32796
O          2.44523        21.40092        -2.34101
H          2.43414        20.47365        -2.69073
O         17.34009        18.48285         1.56682
H         16.56058        17.98997         1.90295
O          8.70366        29.26939        -1.77000
H          8.57648        30.21488        -2.00385
O          2.35633        18.55964        -2.59020
H          1.55772        18.07867        -2.89691
O         18.85948         8.17086         1.98136
H         18.15754         7.79265         2.55093
O         19.77671        12.51537        -2.33243
H         19.65529        11.56149        -2.52789
O          1.13754        29.34069        -1.09959
H          1.16755        30.29262        -1.33279
O          2.13182         4.66161         2.41823
H          2.10422         3.85289         2.97034
O          0.92565        12.01483        -2.50156
H          0.96053        12.95696        -2.77155
O         19.43368         8.01034        -1.63069
H         20.23003         8.21263        -2.16416
O          4.71208         6.24025         2.27259
H          5.48513         5.93550         2.79195
O         12.38079        17.49220        -1.99581
H         12.36648        16.69318        -2.56359
O         15.80298        20.73772        -1.98221
H         14.96053        20.29063        -2.21459
O         11.34729        10.30628        -2.24316
H         11.49029         9.33192        -2.35950
O         13.61604        23.19761         2.42868
H         12.92692        23.81049         2.78478
O         15.85868        36.10057        -1.67832
H         16.65130        36.49596        -2.10133
O          0.98949        27.56822         2.10324
H          1.22778        26.63952         2.31717
O          8.68071         7.14235         1.93678
H          8.92847         6.47390         2.60908
O         17.43810        29.86841         2.20396
H         16.58331        30.16731         2.58277
O         12.23603        20.89501         2.09124
H         12.84653        21.55952         2.51133
O         18.49174        24.97865         1.77671
H         19.29381        24.52828         2.11433
O         12.35963        18.01184         1.62998
H         12.29980        18.87031         2.11727
O          6.30615        24.78853        -2.21272
H          5.91886        25.62123        -2.57408
O          8.68384         6.96706        -1.72575
H          8.26232         7.57866        -2.36802
O         11.91648         8.56579         1.75702
H         12.60660         9.09451         2.20994
H          1.20676         2.32197         0.77864
H         -0.83695         3.42715        -0.05484
H         -0.99964         5.88784        -0.24611
H         -1.00368         7.85467        -0.47188
H         -0.99971        10.26837        -0.88433
H         -0.96348        12.18292        -0.19710
H         -0.90493        14.59899         0.02008
H         -0.98903        16.46799        -0.48492
H         -1.01320        18.87528        -0.32618
H         -1.03027        20.80404        -0.27573
H         -1.02799        23.20866        -0.19329
H         -0.99289        25.19162        -0.58592
H         -1.02207        27.56789        -0.11464
H         -1.01807        29.47352         1.07383
H         -0.89336        31.90646         1.29261
H         -0.95265        33.77119         0.69363
H         -0.92265        36.22640         0.56255
H          0.32502        38.36638         0.41087
H          3.71267         2.44080         1.10456
H          2.46966        39.59330         0.23825
H          6.16772         2.48591         1.23444
H          4.94859        39.56690         0.08504
H          8.60615         2.55108         1.40109
H          7.41447        39.54465        -0.09816
H         11.06615         2.49302         1.27009
H          9.86910        39.49118        -0.44514
H         13.54933         2.45018         1.15943
H         12.16307        39.22685        -1.34454
H         16.01602         2.40866         1.03457
H         15.05347        39.72910        -0.74567
H         18.49658         2.38633         0.97657
H         17.32799        39.57478        -0.46594
H         20.65184         3.60962         0.79741
H         21.91464         5.75988         0.66589
H         21.97782         8.10315        -0.02677
H         21.92369        10.07839         0.04956
H         21.95810        12.47680        -0.35060
H         21.90022        14.38055        -0.80307
H         21.89234        16.81342        -0.68320
H         21.85869        18.69913        -0.93933
H         21.87423        21.12063        -0.79490
H         21.88497        22.99981        -0.54652
H         21.88710        25.41208        -0.52345
H         21.81717        27.30969        -0.74443
H         21.81256        29.71919        -0.60997
H         21.81423        31.60369        -0.49177
H         21.87690        34.00007        -0.19448
H         21.88191        35.92589         0.40035
H         21.86283        38.35933        -0.07151
H         19.71802        39.56386        -0.43571
