         429
 CSIRO Nanostructure Databank - Neutral Graphene Oxide Data Set
C          2.35306         2.07485        -3.48493
C          2.08197         3.41254        -3.16744
C          3.54795         1.44911        -3.16221
C          2.90412         4.10525        -2.17045
C          1.66691         6.27677        -2.34535
C          1.58487         7.64996        -2.20920
C          2.80846         5.56637        -1.91551
C          2.67467         8.39549        -1.69714
C          1.45927        10.56949        -1.92383
C          1.44888        11.94644        -1.90356
C          2.64693         9.84013        -1.65567
C          2.62901        12.69289        -1.63966
C          1.41443        14.88371        -1.81133
C          1.41666        16.27149        -1.79876
C          2.60570        14.14570        -1.62472
C          2.61849        16.99276        -1.64263
C          2.63053        18.43452        -1.63559
C          4.69188         2.26663        -2.64475
C          4.20960         3.43716        -1.81656
C          5.77002         1.48927        -1.94215
C          5.25405         4.24038        -1.15054
C          3.87744         6.27114        -1.31424
C          3.83198         7.70148        -1.24605
C          5.05434         5.55552        -0.83112
C          4.99423         8.46128        -0.86679
C          3.83956        10.55894        -1.37533
C          3.83385        11.99196        -1.38964
C          5.02839         9.83879        -1.01722
C          5.05267        12.72057        -1.10345
C          3.82301        14.85609        -1.42292
C          3.83642        16.28169        -1.47582
C          5.03562        14.14461        -1.14713
C          5.08057        16.99628        -1.39100
C          3.79461        19.12808        -1.50409
C          5.07081        18.45269        -1.41633
C          6.60688         2.07854        -1.01544
C          6.30767         3.43649        -0.48528
C          7.86875         1.50183        -0.68622
C          7.31140         4.13316         0.39558
C          6.09318         6.28263        -0.05648
C          6.12705         7.78037        -0.19386
C          7.36154         5.60499         0.29676
C          7.42330         8.47044        -0.02681
C          6.35827        10.55558        -1.00684
C          6.24770        12.04290        -0.75830
C          7.46436         9.86269        -0.23847
C          7.42167        12.76903        -0.47144
C          6.25446        14.86490        -0.99157
C          6.27134        16.28820        -1.19320
C          7.44232        14.16456        -0.66743
C          7.55846        16.99628        -1.26595
C          6.23790        19.17996        -1.28718
C          7.54066        18.52618        -1.34453
C          8.85942         2.15753         0.06529
C          8.50924         3.36070         0.94320
C         10.14991         1.62698         0.12678
C          9.73541         4.22846         1.16810
C          8.53348         6.30309         0.52616
C          8.57624         7.75475         0.38942
C          9.75092         5.56889         0.91629
C          9.78490         8.48779         0.65574
C          8.61898        10.58402         0.13593
C          8.56227        12.08852         0.26248
C          9.75914         9.91466         0.59883
C          9.91757        12.72741         0.10238
C          8.74104        14.87890        -0.70353
C          8.77399        16.35814        -0.72807
C          9.99616        14.12310        -0.37672
C          9.91548        17.07682        -0.41495
C          8.78682        19.21080        -0.99155
C          9.94733        18.54227        -0.66101
C         11.18963         2.18125         0.93298
C         10.90605         3.45017         1.74858
C         12.37978         1.51380         1.08451
C         12.17795         4.27527         1.91531
C         11.06392         6.32102         0.78296
C         10.99650         7.81531         0.98970
C         12.24134         5.68830         1.47318
C         12.21383         8.54225         1.20358
C         10.91528        10.71146         1.17395
C         11.03039        12.09821         0.57694
C         12.22975         9.96548         1.16976
C         12.29893        12.80659         0.69848
C         11.15412        14.91798         0.06011
C         11.07145        16.32424         0.09637
C         12.31221        14.23791         0.52358
C         12.16981        16.97181         0.71067
C         11.18516        19.31860        -0.73661
C         12.28008        19.06575         0.06841
C         13.39032         1.95919         2.12256
C         13.44199         3.49143         2.12220
C         14.74364         1.32481         1.93429
C         14.72144         4.17271         1.78806
C         13.41196         6.40194         1.60559
C         13.44833         7.84260         1.42890
C         14.70087         5.65554         1.70143
C         14.64828         8.57950         1.62537
C         13.44193        10.67968         1.27189
C         13.45924        12.13205         1.09299
C         14.65293         9.98293         1.55337
C         14.70211        12.85828         1.19923
C         13.49861        14.97762         0.79626
C         13.43032        16.39512         0.84940
C         14.72217        14.27632         1.06139
C         14.62712        17.25985         1.08730
C         13.64865        19.38756        -0.07874
C         14.71458        18.65821         0.52494
C         15.95267         2.00302         1.95877
C         15.99497         3.45569         2.01919
C         17.20231         1.30683         1.93223
C         17.18247         4.14841         2.00899
C         15.91536         6.38082         2.17528
C         15.87714         7.87294         2.09791
C         17.25956         5.63174         2.31587
C         17.24070         8.56210         2.09739
C         15.90171        10.75093         1.95458
C         15.92156        12.18106         1.46229
C         17.18020        10.00600         1.64239
C         17.12655        12.89097         1.43214
C         15.93635        15.00406         1.19714
C         15.93564        16.49407         1.24312
C         17.14166        14.30228         1.29982
C         17.21701        17.17939         0.96941
C         15.97710        19.25772         0.45562
C         17.21265        18.58592         0.69753
C         18.42030         1.99533         1.86607
C         18.42721         3.44548         1.84446
C         19.65516         1.29892         1.77226
C         19.60281         4.15148         1.55386
C         18.38831         6.30211         1.54776
C         18.28705         7.76356         1.32294
C         19.53467         5.58984         1.28041
C         19.52264         8.52592         0.90967
C         18.35336        10.68155         1.42421
C         18.41969        12.16958         1.72486
C         19.59110         9.97051         1.20751
C         19.64780        12.82639         1.13705
C         18.47069        15.01901         1.40204
C         18.42172        16.47380         0.98388
C         19.54245        14.25106         0.62030
C         19.64799        17.14755         0.76392
C         18.43496        19.27053         0.58426
C         19.66691        18.57542         0.63189
C         20.86730         1.98491         1.60124
C         20.84865         3.43182         1.46200
C         22.09373         1.28419         1.45433
C         22.05441         4.10376         1.25647
C         20.74713         6.25611         0.73014
C         20.79624         7.77520         0.65786
C         22.04642         5.51657         0.82961
C         22.08154         8.48094         0.94109
C         20.80306        10.64261         1.11043
C         20.79464        12.09793         0.99933
C         22.05928         9.92728         1.02793
C         22.04259        12.73799         0.50291
C         20.85672        14.99807         0.59902
C         20.88660        16.40593         0.63977
C         22.05948        14.22234         0.29110
C         22.10532        17.13036         0.49542
C         20.90613        19.26066         0.56043
C         22.13418        18.55739         0.53770
C         23.31346         1.95814         1.25951
C         23.30745         3.40791         1.25117
C         24.54290         1.28037         1.06917
C         24.51787         4.11036         1.21136
C         23.32894         6.30011         0.93467
C         23.26148         7.76637         1.10358
C         24.52738         5.57890         1.55447
C         24.48734         8.45042         1.55485
C         23.26819        10.65681         1.05299
C         23.32262        12.05830         0.81268
C         24.50334         9.95593         1.42252
C         24.52892        12.78163         0.94502
C         23.38762        14.91495         0.23242
C         23.37927        16.42408         0.29398
C         24.60105        14.21276         0.70053
C         24.63571        17.12418         0.58359
C         23.38374        19.24445         0.51030
C         24.62573        18.56246         0.56574
C         25.74258         1.97964         0.81934
C         25.73748         3.43707         0.90994
C         26.94604         1.29483         0.52585
C         26.88901         4.17562         0.60135
C         25.78599         6.28711         1.17161
C         25.85471         7.73717         1.58979
C         26.90418         5.62608         0.70302
C         26.85870         8.50461         0.70944
C         25.78418        10.67651         1.30837
C         25.74379        12.07146         1.24913
C         27.00725         9.95210         1.13717
C         26.98559        12.79927         1.50292
C         25.76838        14.95170         0.89527
C         25.82017        16.39316         0.73648
C         26.99319        14.28614         1.38503
C         27.08343        17.09402         0.73628
C         25.86537        19.23961         0.55342
C         27.09013        18.52775         0.57579
C         28.13314         1.98311         0.18091
C         28.05672         3.45618         0.06908
C         29.35229         1.34288        -0.07010
C         29.36296         4.20875        -0.08315
C         28.13300         6.38196         0.47074
C         28.16791         7.76929         0.57162
C         29.40132         5.62744         0.35763
C         29.37927         8.51870         0.41202
C         28.23213        10.60360         1.03682
C         28.31055        12.03175         1.37595
C         29.43926         9.90371         0.64518
C         29.53455        12.79062         1.04266
C         28.32839        14.98957         1.23607
C         28.31221        16.40196         0.79944
C         29.56103        14.18999         1.03556
C         29.54303        17.07137         0.62098
C         28.32874        19.20202         0.46769
C         29.55172        18.50129         0.46153
C         30.58654         2.04668        -0.28867
C         30.62551         3.46926        -0.19720
C         31.79193         1.35384        -0.55227
C         31.84257         4.18863        -0.36188
C         30.67542         6.36791         0.10720
C         30.50629         7.81806        -0.30470
C         31.86067         5.62132        -0.37493
C         31.83396         8.57389        -0.30911
C         30.68464        10.63600         0.59924
C         30.72090        12.01816         0.79016
C         31.97134         9.82448         0.54784
C         32.00716        12.74525         0.86241
C         30.78085        14.90675         0.74884
C         30.77688        16.33648         0.61565
C         32.00940        14.20528         0.68431
C         32.00391        17.03087         0.45784
C         30.79690        19.17478         0.34599
C         32.01000        18.47211         0.35126
C         33.01740         2.03863        -0.74208
C         33.04858         3.47448        -0.63186
C         34.21227         1.35318        -1.07288
C         34.27164         4.18310        -0.77622
C         33.05323         6.31897        -0.62771
C         33.08755         7.80452        -0.57859
C         34.27018         5.60536        -0.71147
C         34.38699         8.49938        -0.46071
C         33.21788        10.58855         0.16752
C         33.30044        11.99381         0.53646
C         34.37035         9.93999        -0.29314
C         34.48253        12.76546         0.14266
C         33.23551        14.88956         0.46985
C         33.23422        16.31449         0.38735
C         34.46482        14.17261         0.22703
C         34.47488        17.01904         0.26396
C         33.25557        19.15507         0.24183
C         34.47340        18.47144         0.21461
C         35.42770         2.04395        -1.28445
C         35.48065         3.46533        -1.08808
C         36.61563         1.36334        -1.67474
C         36.69699         4.15259        -1.32246
C         35.54540         6.32923        -0.60937
C         35.57065         7.80618        -0.66845
C         36.82114         5.57744        -0.95413
C         36.80886         8.48341        -0.91859
C         35.58381        10.66649        -0.50176
C         35.63868        12.06030        -0.30385
C         36.74204         9.97718        -1.17364
C         36.85826        12.79308        -0.54922
C         35.67988        14.89638        -0.00924
C         35.68075        16.30990         0.13259
C         36.86543        14.17470        -0.38285
C         36.98776        17.03863         0.32042
C         35.70601        19.17465         0.04598
C         36.93766        18.52013         0.01520
C         37.79119         2.05836        -1.96969
C         37.81132         3.48236        -1.84628
C         39.03513         1.34973        -2.23105
C         39.00093         4.25148        -2.24428
C         37.99313         6.36082        -1.37659
C         37.96760         7.77947        -1.26768
C         39.12225         5.68247        -1.89389
C         39.16335         8.56542        -1.76960
C         38.05655        10.69477        -0.98065
C         38.09175        12.06097        -0.83985
C         39.31766         9.86362        -0.96192
C         39.36044        12.79223        -0.95195
C         38.08971        14.92979        -0.72360
C         38.13455        16.38661        -0.42186
C         39.37139        14.20681        -0.92469
C         39.49257        17.02812        -0.22117
C         38.15631        19.20016        -0.19747
C         39.40429        18.54531        -0.31968
C         40.21789         1.98936        -2.39593
C         40.28979         3.45644        -2.52989
C         41.54498         4.18020        -2.32901
C         40.37658         6.33776        -2.03115
C         40.45281         7.76416        -1.82396
C         41.56564         5.53785        -2.18294
C         41.63440         8.47926        -1.84611
C         40.56347        10.63467        -1.34389
C         40.56936        12.08427        -1.21307
C         41.67075         9.90119        -1.70321
C         41.75382        12.82710        -1.39791
C         40.57167        14.93523        -1.11173
C         40.54875        16.46193        -1.19503
C         41.75391        14.21628        -1.34674
C         41.85449        17.17114        -0.90636
C         40.60558        19.22636        -0.47440
C         41.83611        18.50190        -0.62394
O         12.78046         4.11216         3.25403
O          3.06309         3.23647        -0.95711
O         32.36135         8.59223        -1.66052
O         22.91364         5.75222        -0.33918
O         37.81261        15.97704        -1.77622
O         14.83063         4.85002         0.46684
O         36.42633         5.80583         0.44611
O         39.44976         3.97583        -3.61405
O          5.61874         7.13782         1.03903
O         20.66927         6.96165        -0.54438
O         27.71215        12.33613         2.67562
O         15.60913         7.17211         3.36381
O         30.31907         5.95198         1.46425
O         15.22929        17.07145         2.40555
O         24.31987         9.27734         2.75168
O         11.99736        18.26272         1.19157
O         27.64269        14.89419         2.54234
O          7.73900        17.68108        -2.54778
O          9.60887        14.31018        -1.78283
O         32.87156        12.25328         1.95058
O         18.45200         8.20780        -0.05073
O          6.08228         3.56904         0.97369
O         23.51234        15.68298        -1.00171
O         28.48351         3.99744        -1.23874
O         21.89064        13.27578        -0.86166
O         24.37051         5.69350         3.00634
H         25.11128         6.25203         3.34913
O         32.18697         9.33518         1.90876
H         32.35268        10.12749         2.46977
O          8.10098         2.79348         2.21874
H          7.11457         2.71510         2.18266
O         10.55455         3.01968         3.08628
H          9.61966         2.69634         3.06704
O         40.21069        16.81052        -2.55784
H         39.29266        16.47938        -2.72082
O          6.81785        10.46639        -2.41036
H          6.20480        11.00314        -2.95690
O         15.89044        10.83741         3.42707
H         16.64066        11.43205         3.67141
O         17.70856         8.60610         3.47414
H         17.03484         9.12523         3.97474
O         30.02362         7.74199        -1.68040
H         30.79389         7.95954        -2.26301
O         19.10187        14.15185        -0.76330
H         19.85814        13.77471        -1.27222
O         11.36170         6.17012        -0.66776
H         12.25806         6.53860        -0.82629
O         38.87969         8.95261        -3.15493
H         38.93378         8.14552        -3.70978
O         26.24673         8.53404        -0.61555
H         26.95461         8.66444        -1.28161
O         37.30687        16.91661         1.75149
H         36.59450        17.36667         2.25398
O          5.34260         2.89877        -3.82028
H          5.64475         2.17952        -4.41442
O         36.44992        10.09431        -2.61818
H         37.26298         9.77693        -3.09164
O         39.94804        16.68236         1.10777
H         39.21024        16.87914         1.73234
O         18.54678        12.20774         3.19494
H         19.44714        11.89474         3.42731
O         17.64996         5.69422         3.71240
H         17.44367         6.61117         4.02184
O         26.30862         7.72409         2.96320
H         25.86531         8.48839         3.41086
O         39.49199         9.44189         0.42705
H         39.64991        10.24297         0.96917
O          8.23597        12.31783         1.69708
H          7.36093        11.90765         1.87109
O         12.89543         1.49858         3.40411
H         12.12931         2.08690         3.63382
O         10.57143        10.91455         2.58645
H          9.74141        11.45307         2.59412
O         18.90162        14.99942         2.78906
H         18.18285        15.37774         3.33771
H          1.59722         1.51037        -4.05285
H          1.19185         3.89852        -3.59034
H          3.71510         0.39740        -3.43726
H          0.82080         5.73144        -2.78505
H          0.67613         8.16110        -2.55252
H          0.52096        10.03789        -2.12952
H          0.50294        12.46659        -2.10201
H          0.45802        14.36408        -1.95531
H          0.47265        16.82055        -1.92673
H          1.67307        18.96677        -1.73346
H          6.02715         0.49142        -2.33318
H          3.78907        20.22788        -1.49809
H          8.14063         0.55708        -1.18327
H          6.19400        20.27056        -1.14712
H         10.37070         0.70887        -0.44099
H          8.81465        20.30667        -1.09175
H         12.53469         0.55865         0.55788
H         11.24712        20.08798        -1.52061
H         14.76120         0.22433         1.89411
H         13.92449        20.23243        -0.72875
H         17.20076         0.20653         1.93174
H         16.03351        20.30051         0.10747
H         19.65466         0.19926         1.81016
H         18.43407        20.35937         0.43000
H         22.08234         0.18411         1.48161
H         20.91131        20.36001         0.52393
H         24.55403         0.17994         1.07041
H         23.38121        20.34412         0.48638
H         26.94956         0.19439         0.53767
H         25.88235        20.33696         0.48024
H         29.38503         0.24306        -0.04606
H         28.33628        20.29784         0.37123
H         31.77436         0.25707        -0.63604
H         30.80701        20.27074         0.25113
H         34.18710         0.26052        -1.19926
H         33.25242        20.25273         0.16535
H         36.60038         0.26611        -1.75558
H         35.67131        20.26424        -0.10731
H         39.01018         0.25062        -2.18475
H         38.12892        20.29603        -0.31123
H         41.15479         1.41586        -2.46114
H         42.48208         3.60620        -2.28036
H         42.54182         6.03351        -2.08880
H         42.59326         7.96703        -2.00748
H         42.63477        10.39681        -1.88600
H         42.70174        12.30963        -1.59701
H         42.70020        14.74816        -1.51287
H         42.81696        16.65600        -1.03698
H         40.62523        20.32637        -0.45282
H         42.78195        19.05565        -0.52538
