         576
 CSIRO Nanostructure Databank - Neutral Graphene Oxide Data Set
C          5.87596        19.04869         0.43616
C          5.83354        20.41806         0.60519
C          4.64528        21.21917         0.40666
C          5.85577        23.38204         0.54968
C          4.65814        22.59049         0.38165
C          5.91246        24.74891         0.39302
C          8.41604        14.68544         0.39019
C          8.32052        16.07121         0.98317
C          7.10737        16.88421         0.56007
C          8.31725        18.98858         1.02345
C          7.07341        18.24752         0.65681
C          8.34677        20.43669         0.65976
C          7.07425        21.16542         0.92670
C          8.37463        23.37764         0.45061
C          7.10602        22.65338         0.87824
C          8.37346        24.77145         1.07918
C          7.12553        25.51777         0.61534
C          8.33401        27.67796         0.85756
C          7.13959        26.87776         0.50988
C          8.38628        29.10862         0.57165
C         10.83810        10.36805        -0.18037
C         10.86355        11.74999        -0.04375
C          9.54218        12.49933        -0.00712
C         10.85344        14.59134         0.66283
C          9.61184        13.97847         0.34788
C         10.90809        16.06449         0.75065
C          9.62081        16.83439         0.77642
C         10.89248        19.04942         0.95204
C          9.62658        18.28618         1.14298
C         10.91032        20.40774         0.74274
C          9.64443        21.16034         0.56209
C         10.85836        23.31672         0.64155
C          9.66962        22.63177         0.67229
C         10.84440        24.78592         0.63982
C          9.68319        25.48953         0.79639
C         10.90684        27.75457         0.79940
C          9.67777        26.95634         0.97627
C         10.85600        29.12357         0.69113
C          9.56935        29.83201         0.59934
C         10.50205        32.10148         0.03757
C          9.49727        31.27899         0.56144
C         10.79000        33.46002         0.26331
C         13.32577         6.02726        -0.05847
C         13.31204         7.47366        -0.22735
C         12.08207         8.21030        -0.32083
C         13.28829        10.36606        -0.49642
C         12.04135         9.60363        -0.29990
C         13.33801        11.80182        -0.14230
C         12.10867        12.44516         0.09475
C         13.44136        14.54893         0.74171
C         12.09792        13.81458         0.64601
C         13.48088        16.03917         0.96027
C         12.16961        16.78564         1.12333
C         13.43051        19.03170         0.77556
C         12.15665        18.30218         1.10411
C         13.37467        20.47917         0.45072
C         12.14296        21.16359         0.57139
C         13.34147        23.28506         0.38130
C         12.12354        22.58650         0.53053
C         13.39831        24.73584         0.70414
C         12.13638        25.51344         0.51383
C         13.47288        27.68049         1.04689
C         12.18766        26.99881         0.65541
C         13.46006        29.16824         0.94447
C         12.12401        29.94541         0.87099
C         13.42411        31.95186         0.14948
C         12.27867        31.13202        -0.01782
C         13.35009        33.36547         0.11275
C         12.07544        34.09848         0.16447
C         13.30296        36.26763         0.74139
C         12.10857        35.48590         0.27303
C         13.38556        37.68503         0.20734
C         15.75742         5.96968         0.31727
C         14.47801         5.31925         0.14643
C         15.72459         7.44889         0.35196
C         14.53305         8.14565        -0.18722
C         15.88018        10.31568        -0.33044
C         14.59168         9.57285        -0.48440
C         15.85691        11.78994        -0.17807
C         14.59276        12.49204        -0.09404
C         15.82757        14.63673         0.08013
C         14.64490        13.89464         0.19248
C         15.82550        16.07051         0.11416
C         14.69001        16.76755         0.50402
C         15.82932        18.98604        -0.06743
C         14.58823        18.22847         0.27569
C         15.85817        20.46209         0.17427
C         14.56535        21.19091         0.21108
C         15.78378        23.37148        -0.13832
C         14.55376        22.59888         0.19043
C         15.91019        24.79166         0.19700
C         14.71652        25.46211         0.74794
C         15.92828        27.67204         0.22561
C         14.84638        26.96001         1.02041
C         15.89001        29.10579         0.18011
C         14.71177        29.84855         0.50001
C         15.86820        31.96443        -0.05832
C         14.67860        31.24173         0.27130
C         15.79232        33.39066        -0.06893
C         14.58514        34.06775         0.18324
C         15.88242        36.27584         0.38254
C         14.61411        35.50490         0.56454
C         15.84906        37.74792         0.23402
C         14.54457        38.37547         0.10376
C         18.24671         5.96391         0.49256
C         16.96603         5.30330         0.39094
C         18.31214         7.43544         0.86245
C         17.00822         8.17733         0.55482
C         18.33434        10.31072         0.40125
C         17.11583         9.57440         0.04127
C         18.26390        11.76726         0.48303
C         17.04369        12.46431         0.03984
C         18.37471        14.67051         0.12972
C         17.11169        13.93198        -0.28637
C         18.37341        16.06630        -0.02555
C         17.08238        16.77075        -0.40303
C         18.38204        18.99137        -0.20340
C         17.12111        18.23870        -0.00566
C         18.30361        20.42421        -0.73283
C         17.12029        21.17608        -0.15310
C         18.33655        23.36663        -0.36511
C         17.06898        22.63598        -0.43957
C         18.30818        24.75126        -0.36006
C         17.08528        25.48508        -0.09790
C         18.28700        27.67146        -0.48405
C         17.08840        26.95701        -0.10808
C         18.25432        29.07967        -0.55175
C         17.07101        29.81726        -0.23395
C         18.30559        31.95142        -0.59625
C         17.07786        31.24381        -0.29042
C         18.27208        33.42830        -0.74472
C         16.99882        34.16294        -0.43439
C         18.28755        36.27274        -0.15512
C         17.09055        35.59054        -0.10776
C         18.30628        37.70888         0.09666
C         17.04077        38.41672         0.13617
C         20.70999         5.98634         0.37445
C         19.44325         5.28551         0.42055
C         20.69090         7.42044         0.11566
C         19.53581         8.14256         0.30822
C         20.77523        10.29945         0.33456
C         19.54680         9.60000         0.34255
C         20.82459        11.73715         0.65481
C         19.55364        12.54352         0.67344
C         20.83960        14.68072         0.20452
C         19.59362        13.98395         0.32678
C         20.81581        16.09605        -0.03994
C         19.60161        16.78145        -0.09180
C         20.82860        19.04296        -0.02282
C         19.63093        18.22029        -0.59636
C         20.87835        20.44870        -0.69497
C         19.58312        21.22351        -0.51619
C         20.82025        23.33331         0.02592
C         19.56950        22.58444        -0.37313
C         20.85448        24.79090        -0.34807
C         19.56782        25.47525        -0.76173
C         20.76230        27.63097        -0.49065
C         19.55618        26.96495        -0.53900
C         20.80583        29.05558        -0.80861
C         19.47148        29.81558        -0.92810
C         20.74227        32.02170        -1.26436
C         19.47834        31.28647        -0.85016
C         20.75200        33.49118        -0.85638
C         19.54403        34.17778        -0.65735
C         20.76657        36.26400        -0.27238
C         19.53646        35.57039        -0.39456
C         20.76803        37.66115         0.14552
C         19.51595        38.35729         0.24520
C         23.20964         5.97344         0.36827
C         21.92248         5.34903         0.56507
C         23.23414         7.23120        -0.53319
C         21.92628         8.08721        -0.36095
C         23.25243        10.33917        -0.20539
C         21.96209         9.61192        -0.16967
C         23.26975        11.71616        -0.11526
C         22.09961        12.49103         0.35206
C         23.31329        14.62334        -0.10077
C         22.07132        13.94979         0.16014
C         23.28128        16.12654         0.15222
C         22.08164        16.81334        -0.49724
C         23.31145        18.99644        -0.15585
C         22.13474        18.30836        -0.19782
C         23.37035        20.49702         0.04463
C         22.09228        21.22948        -0.26257
C         23.36047        23.33752        -0.32005
C         22.10789        22.59247        -0.24072
C         23.32566        24.76420        -0.34087
C         22.04315        25.46394        -0.29272
C         23.30389        27.65513        -0.51180
C         22.05197        26.95618        -0.04274
C         23.37435        29.14783        -0.26834
C         22.01829        29.85927        -0.45155
C         23.25866        32.01712        -0.90857
C         21.98761        31.32671        -0.70971
C         23.22750        33.46032        -1.09398
C         21.97119        34.20365        -0.82903
C         23.24845        36.34419        -0.37463
C         21.98262        35.58427        -0.52117
C         23.21587        37.60934         0.39577
C         21.95775        38.27679         0.51489
C         25.70033         5.61192         0.49134
C         24.32368         5.28470         0.81153
C         25.75474         7.57189        -0.40837
C         24.48658         8.17298        -0.34986
C         25.71229        10.21209        -0.94763
C         24.44315         9.56849        -0.42836
C         25.66718        11.73969        -0.88044
C         24.58422        12.43722        -0.07145
C         25.72562        14.65795        -0.79811
C         24.48570        13.93187        -0.32141
C         25.84877        16.08477        -0.32516
C         24.60178        16.84773        -0.07462
C         25.75119        18.97495        -0.61800
C         24.59366        18.31344        -0.29658
C         25.87380        20.47437        -0.39395
C         24.53017        21.13633        -0.73908
C         25.76525        23.33901        -0.85270
C         24.56916        22.64517        -0.57199
C         25.72731        24.77932        -0.88090
C         24.50716        25.48941        -0.62871
C         25.71325        27.66183        -1.01534
C         24.48002        26.94779        -0.72541
C         25.69277        29.11213        -1.18072
C         24.52910        29.81137        -0.99776
C         25.74562        31.97987        -0.97280
C         24.47289        31.27281        -1.41588
C         25.73671        33.33383        -0.58490
C         24.56482        34.17455        -0.89716
C         25.70415        36.09493         0.33496
C         24.57794        35.60898        -0.48066
C         25.62778        37.39502         0.90949
C         24.39383        38.13837         0.89037
C         28.18251         6.05705         0.77770
C         26.82886         5.50090         1.23224
C         28.15485         7.57350         0.45220
C         26.96898         8.25504         0.02122
C         28.18758        10.37632        -0.33680
C         26.96593         9.63182        -0.29276
C         28.19892        11.71054        -0.77250
C         26.95714        12.47248        -0.94288
C         28.24374        14.64720        -0.97668
C         27.01918        13.91456        -0.44343
C         28.18539        16.08855        -1.17053
C         27.04837        16.78066        -0.86323
C         28.15053        18.97737        -1.55848
C         26.91598        18.22172        -1.13430
C         28.13953        20.45887        -1.47422
C         27.03102        21.15801        -1.10424
C         28.12242        23.30695        -1.62530
C         26.99686        22.62361        -1.17328
C         28.10972        24.78093        -1.65356
C         26.89509        25.50604        -1.21676
C         28.19168        27.62176        -1.39777
C         26.88516        26.92408        -1.24003
C         28.23994        29.11146        -1.45735
C         26.93634        29.89561        -1.65288
C         28.12440        31.85605        -0.48231
C         26.96035        31.25821        -0.97453
C         28.05213        33.14202         0.14208
C         26.86553        33.91516         0.03146
C         27.94561        35.77705         1.28363
C         26.83795        35.27296         0.55469
C         27.93672        37.13998         1.70032
C         26.77007        37.91471         1.54669
C         30.44649         6.59807         2.03209
C         29.10522         5.97576         1.94874
C         30.49811         7.87237         1.22425
C         29.36749         8.34911         0.57494
C         30.61980        10.43356         0.05881
C         29.41269         9.72746         0.08040
C         30.65091        11.87279        -0.22896
C         29.38675        12.54605        -0.59463
C         30.72584        14.57313        -1.49130
C         29.40562        13.94796        -1.07999
C         30.69629        16.07849        -1.35297
C         29.41411        16.76973        -1.76513
C         30.62671        18.98097        -1.38150
C         29.42601        18.26016        -1.53629
C         30.62796        20.41286        -1.45823
C         29.38493        21.07709        -2.05641
C         30.71853        23.34095        -1.85076
C         29.36905        22.60793        -2.00816
C         30.72296        24.77981        -1.49572
C         29.44338        25.51354        -1.55389
C         30.68488        27.61349        -0.93070
C         29.38246        26.85159        -0.84468
C         30.62442        29.05272        -0.72002
C         29.45068        29.75833        -0.90415
C         30.49569        31.62428         0.32602
C         29.48846        31.25667        -0.73701
C         30.15572        32.64003         1.20702
C         29.11842        33.57803         0.98815
C         30.41813        35.64370         2.15263
C         29.08852        34.90809         1.63452
C         30.37633        37.11898         2.09299
C         29.16996        37.78346         2.06330
C         32.79660         6.23580         1.11652
C         31.64993         5.73716         1.60455
C         32.92751         7.64174         0.57055
C         31.83883         8.53499         1.17158
C         33.07616        10.50598         0.33077
C         31.85383         9.85162         0.45546
C         33.15733        11.88269        -0.10491
C         31.92265        12.58620        -0.45459
C         33.16831        14.68291        -0.50860
C         31.91438        13.90320        -0.81690
C         33.13261        16.13321        -0.92549
C         31.87432        16.80697        -1.14121
C         33.04309        18.98096        -0.92024
C         31.85267        18.25418        -1.16844
C         33.02682        20.40590        -0.94016
C         31.83959        21.13876        -1.27005
C         33.16708        23.29337        -1.31964
C         31.89926        22.55623        -1.47253
C         33.19716        24.80926        -1.31324
C         31.88494        25.49149        -1.28052
C         33.18796        27.67065        -1.25486
C         31.86970        26.93269        -1.05853
C         33.12072        29.13069        -0.76714
C         31.84797        29.73684        -0.33521
C         33.04088        31.67750         0.69744
C         31.80132        30.99532         0.28456
C         33.05724        33.03226         1.27274
C         31.99194        33.59414         1.93399
C         33.02227        35.89326         1.90795
C         31.81281        35.03514         2.19258
C         32.81226        37.34033         1.70477
C         31.59348        37.89307         1.89683
C         34.25457         8.36684         0.73525
C         35.53365        10.48735         0.58022
C         34.31049         9.75288         0.57952
C         35.58548        11.85633         0.22251
C         34.37814        12.52074        -0.22135
C         35.70341        14.68085        -0.59363
C         34.43161        13.88079        -0.90682
C         35.63138        16.17878        -0.57357
C         34.31633        16.87081        -0.75071
C         35.36998        19.03463        -0.00379
C         34.26581        18.27100        -0.67470
C         35.59390        20.37941        -0.69604
C         34.32530        21.12586        -0.93370
C         35.56179        23.32348        -0.42227
C         34.24861        22.58415        -0.54242
C         35.56454        24.74163        -0.35894
C         34.38079        25.52809        -0.75080
C         35.54386        27.63449        -0.06732
C         34.37043        26.89117        -0.68681
C         35.70654        29.11269        -0.51193
C         34.37945        29.87105        -0.41200
C         35.52130        31.81801         0.64162
C         34.27423        31.11581         0.37941
C         35.49666        33.18680         0.89934
C         34.26284        33.85943         1.15186
C         34.22801        35.22292         1.40463
C         36.76259        12.61689         0.39566
C         37.90646        14.76887         0.56046
C         36.83277        14.01819         0.12974
C         38.07979        16.23212         0.22909
C         36.74464        16.93756         0.05440
C         37.67786        19.06270         1.02959
C         36.63463        18.26105         0.28046
C         37.93415        20.39100         0.31891
C         36.90153        21.13827        -0.49795
C         37.87584        23.29840         0.33582
C         36.73751        22.60865        -0.13517
C         37.86572        24.69493         0.48532
C         36.73978        25.41232         0.03824
C         37.98701        27.55781         0.52439
C         36.88092        26.88140        -0.26784
C         37.94054        28.96376         0.67226
C         36.82434        29.74088         0.30352
C         36.75046        31.09256         0.64025
C         39.00079        16.95154         1.19329
C         39.81667        18.95219         2.45852
C         38.90858        18.26828         1.48059
C         40.42254        20.11651         2.11407
C         39.06807        21.09327         0.56218
C         40.02291        23.18496         1.80478
C         38.97458        22.51632         0.93820
C         40.06078        24.65365         1.65623
C         39.03228        25.37279         1.06265
C         39.03154        26.80885         1.06087
C         41.23067        21.14240         2.78862
C         41.16200        22.46390         2.46971
O         28.49851        28.27204        -2.66222
O         16.80386         9.81040        -1.38228
O          8.87341        18.66543         2.33793
O         33.77190        30.04117        -1.74313
O         27.18581        18.48843        -2.57589
O         16.78984        20.88148         1.23365
O          8.89030        20.71266        -0.67550
O         21.74190        30.78071         0.67092
O         36.11601        15.44722        -1.78464
O         32.64147        35.50911         3.30678
O         13.04138        18.81300         2.16014
O         12.26521        26.37790        -0.68394
O         30.08029        23.12118        -3.17403
O         40.28829        20.45563         0.74819
O         12.90033        16.32520         2.27955
O         24.11091        36.48026        -1.55400
O         13.42771        28.49307         2.25556
O         28.74912        25.42322        -2.81630
O         13.95594         9.98213        -1.74263
O         20.20577        29.33387        -2.10748
O          7.09636        21.95837         2.15946
O         25.52904        16.44966         1.03854
O         10.28892        16.64774        -0.49476
O         26.09996        12.31151        -2.14996
O         25.86515         6.25365        -0.77789
O         15.49745        35.74390         1.72856
O         29.84508        12.57074         0.85020
O         17.93455        18.64104         1.14916
O         29.46681        35.01639         3.04299
O         14.11501        24.87048         1.98113
O         12.89892        13.85585         1.89255
O         37.07260        19.45506         2.26406
O         33.53593        24.04241        -2.51706
O         18.70602        12.27260         1.83144
O         23.37673         6.82728        -1.82354
O         16.20520        23.05782        -1.52871
O         30.93715        32.79293         2.36003
O         35.11733        20.59447        -2.06134
O         38.76837        22.67981         2.41366
O         21.67963         8.96024        -1.47775
O         14.92473        18.59127        -1.12452
O         17.40180        33.87040        -1.84385
O         24.03560        33.95650        -2.23780
O         11.35625        31.44248        -0.95547
O          8.91013        27.33025         2.18386
O         21.73825        12.09375         1.75417
O         16.08004         8.06678         1.68736
O         19.69526        18.10675        -2.02045
O         20.85698        31.97036        -2.70258
H         20.03873        32.33720        -3.09722
O         25.61517        14.84008        -2.23036
H         25.55356        13.95183        -2.65548
O         24.36561        31.28022        -2.86655
H         24.37398        32.22650        -3.14559
O         24.26031        20.87037        -2.12999
H         25.00885        21.19810        -2.67060
O         15.39163        27.04547         2.35931
H         14.89659        26.40551         2.91966
O         21.09209        20.28326        -2.11317
H         20.64560        19.42747        -2.38984
O         29.40302        20.68470        -3.45667
H         29.88141        21.39938        -3.94127
O         29.13412        26.54809         0.55709
H         29.31709        27.35019         1.08980
O         26.19385        20.65537         1.00804
H         25.35477        20.55916         1.52645
O         18.49121         7.47015         2.30671
H         17.58682         7.47635         2.70102
O         18.07479        20.27257        -2.14938
H         18.66541        19.52446        -2.45307
O         20.67215        19.24130         1.40229
H         19.74483        19.05164         1.67236
O         34.76039        19.39448         1.27382
H         35.53264        19.45508         1.94113
O         27.12789        13.90653         0.99098
H         27.98010        13.48474         1.24119
O         30.89407        14.30773        -2.92224
H         30.33515        14.96616        -3.40310
O          8.27751        23.55050        -0.98847
H          8.43892        22.66844        -1.39765
O         26.81942        30.16873        -3.06327
H         27.11270        29.35564        -3.53602
O         29.95081        31.81622        -2.01394
H         29.31608        31.53127        -2.70655
O         34.40737        13.60182        -2.31345
H         34.94704        14.29632        -2.75907
O         11.98041        30.57447         2.18297
H         12.24662        29.89453         2.84739
O         20.72745        23.38105         1.50159
H         21.46109        23.94438         1.83052
O         17.20186        13.95820        -1.75701
H         16.34657        13.65227        -2.12703
O         33.71362        22.53207         0.82378
H         34.20233        21.84107         1.32529
O         22.06198        27.07243         1.42719
H         22.66467        27.82437         1.66191
O         30.68015         6.86140         3.43655
H         31.48566         7.43522         3.48442
O         28.67942         5.32026        -0.35888
H         28.00442         5.38760        -1.06846
O         25.83307         9.80894        -2.33560
H         26.09672        10.60705        -2.85248
O          8.29494        24.62126         2.51106
H          8.35847        25.52707         2.89607
O         38.72659        16.23654        -1.08490
H         38.05159        15.90914        -1.72665
O         22.10503        16.68392        -1.93293
H         21.27208        17.13858        -2.25458
O         17.04196        16.75808        -1.85248
H         17.91287        17.11563        -2.17007
O         33.41992        27.70404        -2.68759
H         32.71066        28.24099        -3.10007
O         23.58929        20.71413         1.47443
H         22.82589        20.30899         1.94513
O         23.00801        16.23453         1.57498
H         23.86472        16.09813         2.04136
O         37.28372        26.87192        -1.65572
H         37.10040        27.76774        -2.03752
O         36.12656        29.18937        -1.88989
H         35.30078        29.28731        -2.42999
O         33.25237        14.75418         0.95600
H         32.41752        15.13960         1.29686
O         13.06809        36.43700         2.17604
H         13.95682        36.39213         2.60454
O         32.27307         8.80526         2.55129
H         31.76768         9.58117         2.87513
O         37.54767        21.20424        -1.81156
H         36.83154        21.27040        -2.48625
O         23.70637        29.27363         1.16471
H         23.21064        30.07072         1.48469
O         25.04932        12.28156         1.31119
H         24.36725        12.66540         1.90406
O          8.21039        15.88545         2.43094
H          7.31359        15.54495         2.62995
O         29.28153        16.58760        -3.22948
H         28.49424        17.12154        -3.49903
O          8.63263        11.83747         0.88671
H          8.98750        11.91710         1.79606
O         35.27284        27.70930         1.35878
H         35.26602        26.79616         1.71723
O         32.67437         7.55529        -0.85786
H         33.36251         6.98634        -1.26063
O         19.56949        25.35238        -2.23243
H         20.30171        25.90038        -2.58734
H          4.95352        18.51628         0.15596
H          3.69448        20.69137         0.23759
H          3.71448        23.12638         0.19700
H          4.99914        25.30378         0.12466
H          7.47986        14.14155         0.18950
H          6.18695        16.33529         0.30230
H          6.23635        27.41814         0.18530
H          7.44397        29.62726         0.34195
H          9.86843         9.84858        -0.17835
H          9.08125        12.41648        -1.02972
H          8.61857        31.75730         1.01703
H          9.98616        34.06427         0.70931
H         12.36926         5.49101        -0.14443
H         11.13711         7.64898        -0.26351
H         11.14586        36.01877         0.31927
H         12.43123        38.21659         0.07291
H         14.44157         4.22103         0.20021
H         14.52249        39.44572        -0.15400
H         16.96813         4.20460         0.30559
H         17.05298        39.51470         0.06194
H         19.45280         4.18793         0.32999
H         19.53340        39.43345         0.47343
H         21.91609         4.29007         0.87018
H         21.93494        39.29404         0.93372
H         24.16028         4.40303         1.45363
H         24.37434        39.11787         1.39146
H         26.77307         5.01873         2.21905
H         26.75920        38.94996         1.91759
H         28.61942         5.85284         2.93181
H         29.17104        38.88375         2.10176
H         33.64815         5.55234         0.95798
H         31.60110         4.67729         1.89826
H         33.68014        37.96873         1.45836
H         31.47039        38.98247         1.80184
H         35.19085         7.78823         0.78301
H         36.46648         9.97441         0.85963
H         36.43900        33.74961         0.96589
H         35.14068        35.82100         1.26594
H         37.64136        12.13383         0.85022
H         38.73858        14.25225         1.06577
H         38.75939        29.46035         1.21862
H         37.64385        31.59073         1.04869
H         39.84325        16.36338         1.59272
H         39.88950        18.54618         3.47920
H         40.94222        25.19780         2.03190
H         39.85796        27.33222         1.56858
H         42.01077        20.82060         3.49893
H         41.88848        23.13668         2.95703
